{\rtf1\ansi\ansicpg1252\cocoartf2639
\cocoatextscaling0\cocoaplatform0{\fonttbl\f0\fswiss\fcharset0 Helvetica;}
{\colortbl;\red255\green255\blue255;}
{\*\expandedcolortbl;;}
\paperw11900\paperh16840\margl1440\margr1440\vieww11520\viewh8400\viewkind0
\pard\tx566\tx1133\tx1700\tx2267\tx2834\tx3401\tx3968\tx4535\tx5102\tx5669\tx6236\tx6803\pardirnatural\partightenfactor0

\f0\fs24 \cf0 *** ChampSim Multicore Out-of-Order Simulator ***\
\
Warmup Instructions: 25000000\
Simulation Instructions: 25000000\
Number of CPUs: 1\
Off-chip DRAM Size: 4 GiB Channels: 1 Width: 64-bit Data Rate: 3200 MT/s\
\
VirtualMemory physical capacity: 8588881920 num_ppages: 2096895\
VirtualMemory page size: 4096 log2_page_size: 12\
\
CPU 0 runs /Users/avaneeshsai/Downloads/602.gcc_s-1850B.champsimtrace.xz\
CPU 0 Bimodal branch predictor\
Basic BTB sets: 1024 ways: 8 indirect buffer size: 4096 RAS size: 64\
cpu0_L2C stream prefetcher \
Heartbeat CPU 0 instructions: 10000001 cycles: 2500075 heartbeat IPC: 3.99988 cumulative IPC: 3.99988 (Simulation time: 0 hr 0 min 27 sec) \
Heartbeat CPU 0 instructions: 20000001 cycles: 5000075 heartbeat IPC: 4 cumulative IPC: 3.99994 (Simulation time: 0 hr 0 min 59 sec) \
\
Warmup complete CPU 0 instructions: 25000001 cycles: 6250075 (Simulation time: 0 hr 1 min 19 sec) \
\
Heartbeat CPU 0 instructions: 30000000 cycles: 22100029 heartbeat IPC: 0.584797 cumulative IPC: 0.315458 (Simulation time: 0 hr 1 min 44 sec) \
Heartbeat CPU 0 instructions: 40000002 cycles: 53877567 heartbeat IPC: 0.314688 cumulative IPC: 0.314944 (Simulation time: 0 hr 2 min 37 sec) \
Heartbeat CPU 0 instructions: 50000003 cycles: 85657757 heartbeat IPC: 0.314661 cumulative IPC: 0.314831 (Simulation time: 0 hr 3 min 33 sec) \
Finished CPU 0 instructions: 25000002 cycles: 79407682 cumulative IPC: 0.314831 (Simulation time: 0 hr 3 min 33 sec) \
\
ChampSim completed all CPUs\
\
Region of Interest Statistics\
\
CPU 0 cumulative IPC: 0.314831 instructions: 25000002 cycles: 79407682\
cpu0_DTLB TOTAL     ACCESS:    4747952  HIT:    4739826  MISS:       8126\
cpu0_DTLB LOAD      ACCESS:    3938361  HIT:    3930238  MISS:       8123\
cpu0_DTLB RFO       ACCESS:     809591  HIT:     809588  MISS:          3\
cpu0_DTLB PREFETCH  ACCESS:          0  HIT:          0  MISS:          0\
cpu0_DTLB WRITEBACK ACCESS:          0  HIT:          0  MISS:          0\
cpu0_DTLB TRANSLATION ACCESS:          0  HIT:          0  MISS:          0\
cpu0_DTLB PREFETCH  REQUESTED:          0  ISSUED:          0  USEFUL:          0  USELESS:          0\
cpu0_DTLB AVERAGE MISS LATENCY: 208.5 cycles\
cpu0_ITLB TOTAL     ACCESS:    2857034  HIT:    2857034  MISS:          0\
cpu0_ITLB LOAD      ACCESS:    2857034  HIT:    2857034  MISS:          0\
cpu0_ITLB RFO       ACCESS:          0  HIT:          0  MISS:          0\
cpu0_ITLB PREFETCH  ACCESS:          0  HIT:          0  MISS:          0\
cpu0_ITLB WRITEBACK ACCESS:          0  HIT:          0  MISS:          0\
cpu0_ITLB TRANSLATION ACCESS:          0  HIT:          0  MISS:          0\
cpu0_ITLB PREFETCH  REQUESTED:          0  ISSUED:          0  USEFUL:          0  USELESS:          0\
cpu0_ITLB AVERAGE MISS LATENCY: nan cycles\
cpu0_STLB TOTAL     ACCESS:       8126  HIT:        392  MISS:       7734\
cpu0_STLB LOAD      ACCESS:       8123  HIT:        392  MISS:       7731\
cpu0_STLB RFO       ACCESS:          3  HIT:          0  MISS:          3\
cpu0_STLB PREFETCH  ACCESS:          0  HIT:          0  MISS:          0\
cpu0_STLB WRITEBACK ACCESS:          0  HIT:          0  MISS:          0\
cpu0_STLB TRANSLATION ACCESS:          0  HIT:          0  MISS:          0\
cpu0_STLB PREFETCH  REQUESTED:          0  ISSUED:          0  USEFUL:          0  USELESS:          0\
cpu0_STLB AVERAGE MISS LATENCY: 209.612 cycles\
cpu0_L1D TOTAL     ACCESS:    5544355  HIT:    4941657  MISS:     602698\
cpu0_L1D LOAD      ACCESS:    3378999  HIT:    2777218  MISS:     601781\
cpu0_L1D RFO       ACCESS:    2157622  HIT:    2157450  MISS:        172\
cpu0_L1D PREFETCH  ACCESS:          0  HIT:          0  MISS:          0\
cpu0_L1D WRITEBACK ACCESS:          0  HIT:          0  MISS:          0\
cpu0_L1D TRANSLATION ACCESS:       7734  HIT:       6989  MISS:        745\
cpu0_L1D PREFETCH  REQUESTED:          0  ISSUED:          0  USEFUL:          0  USELESS:          0\
cpu0_L1D AVERAGE MISS LATENCY: 88.4329 cycles\
cpu0_L2C TOTAL     ACCESS:     804220  HIT:     159305  MISS:     644915\
cpu0_L2C LOAD      ACCESS:     601781  HIT:     156585  MISS:     445196\
cpu0_L2C RFO       ACCESS:        172  HIT:          0  MISS:        172\
cpu0_L2C PREFETCH  ACCESS:     199938  HIT:        559  MISS:     199379\
cpu0_L2C WRITEBACK ACCESS:       1584  HIT:       1584  MISS:          0\
cpu0_L2C TRANSLATION ACCESS:        745  HIT:        577  MISS:        168\
cpu0_L2C PREFETCH  REQUESTED:     200033  ISSUED:     200033  USEFUL:        368  USELESS:     198968\
cpu0_L2C AVERAGE MISS LATENCY: 109.312 cycles\
LLC TOTAL     ACCESS:     645547  HIT:       1603  MISS:     643944\
LLC LOAD      ACCESS:     445196  HIT:        852  MISS:     444344\
LLC RFO       ACCESS:        172  HIT:          0  MISS:        172\
LLC PREFETCH  ACCESS:     199379  HIT:         39  MISS:     199340\
LLC WRITEBACK ACCESS:        632  HIT:        632  MISS:          0\
LLC TRANSLATION ACCESS:        168  HIT:         80  MISS:         88\
LLC PREFETCH  REQUESTED:          0  ISSUED:          0  USEFUL:          0  USELESS:          0\
LLC AVERAGE MISS LATENCY: 88.445 cycles\
\
DRAM Statistics\
 CHANNEL 0\
 RQ ROW_BUFFER_HIT:     539344  ROW_BUFFER_MISS:     104600\
 DBUS AVG_CONGESTED_CYCLE:    3.98831\
 WQ ROW_BUFFER_HIT:        400  ROW_BUFFER_MISS:        221  FULL:          0\
\
\
CPU 0 Branch Prediction Accuracy: 92.3646% MPKI: 19.576 Average ROB Occupancy at Mispredict: 33.4931\
Branch type MPKI\
BRANCH_DIRECT_JUMP: 0\
BRANCH_INDIRECT: 0\
BRANCH_CONDITIONAL: 19.576\
BRANCH_DIRECT_CALL: 0\
BRANCH_INDIRECT_CALL: 0\
BRANCH_RETURN: 0}