{\rtf1\ansi\ansicpg1252\cocoartf2639
\cocoatextscaling0\cocoaplatform0{\fonttbl\f0\fswiss\fcharset0 Helvetica;}
{\colortbl;\red255\green255\blue255;}
{\*\expandedcolortbl;;}
\paperw11900\paperh16840\margl1440\margr1440\vieww11520\viewh8400\viewkind0
\pard\tx566\tx1133\tx1700\tx2267\tx2834\tx3401\tx3968\tx4535\tx5102\tx5669\tx6236\tx6803\pardirnatural\partightenfactor0

\f0\fs24 \cf0 *** ChampSim Multicore Out-of-Order Simulator ***\
\
Warmup Instructions: 25000000\
Simulation Instructions: 25000000\
Number of CPUs: 1\
Off-chip DRAM Size: 4 GiB Channels: 1 Width: 64-bit Data Rate: 3200 MT/s\
\
VirtualMemory physical capacity: 8588881920 num_ppages: 2096895\
VirtualMemory page size: 4096 log2_page_size: 12\
\
CPU 0 runs /Users/avaneeshsai/Downloads/619.lbm_s-2677B.champsimtrace.xz\
CPU 0 Bimodal branch predictor\
Basic BTB sets: 1024 ways: 8 indirect buffer size: 4096 RAS size: 64\
cpu0_L2C stream prefetcher \
Heartbeat CPU 0 instructions: 10000001 cycles: 2601325 heartbeat IPC: 3.8442 cumulative IPC: 3.8442 (Simulation time: 0 hr 0 min 33 sec) \
Heartbeat CPU 0 instructions: 20000001 cycles: 5197232 heartbeat IPC: 3.85222 cumulative IPC: 3.8482 (Simulation time: 0 hr 4 min 10 sec) \
\
Warmup complete CPU 0 instructions: 25000004 cycles: 6495823 (Simulation time: 0 hr 7 min 5 sec) \
\
Heartbeat CPU 0 instructions: 30000002 cycles: 30796066 heartbeat IPC: 0.390643 cumulative IPC: 0.205759 (Simulation time: 0 hr 9 min 19 sec) \
Heartbeat CPU 0 instructions: 40000004 cycles: 79204476 heartbeat IPC: 0.206576 cumulative IPC: 0.206303 (Simulation time: 0 hr 13 min 46 sec) \
Heartbeat CPU 0 instructions: 50000001 cycles: 128767229 heartbeat IPC: 0.201764 cumulative IPC: 0.204463 (Simulation time: 0 hr 18 min 19 sec) \
Finished CPU 0 instructions: 25000002 cycles: 122271407 cumulative IPC: 0.204463 (Simulation time: 0 hr 18 min 19 sec) \
\
ChampSim completed all CPUs\
\
Region of Interest Statistics\
\
CPU 0 cumulative IPC: 0.204463 instructions: 25000002 cycles: 122271407\
cpu0_DTLB TOTAL     ACCESS:    4480076  HIT:    4446029  MISS:      34047\
cpu0_DTLB LOAD      ACCESS:    2007409  HIT:    2002788  MISS:       4621\
cpu0_DTLB RFO       ACCESS:    2472667  HIT:    2443241  MISS:      29426\
cpu0_DTLB PREFETCH  ACCESS:          0  HIT:          0  MISS:          0\
cpu0_DTLB WRITEBACK ACCESS:          0  HIT:          0  MISS:          0\
cpu0_DTLB TRANSLATION ACCESS:          0  HIT:          0  MISS:          0\
cpu0_DTLB PREFETCH  REQUESTED:          0  ISSUED:          0  USEFUL:          0  USELESS:          0\
cpu0_DTLB AVERAGE MISS LATENCY: 541.717 cycles\
cpu0_ITLB TOTAL     ACCESS:     472521  HIT:     472521  MISS:          0\
cpu0_ITLB LOAD      ACCESS:     472521  HIT:     472521  MISS:          0\
cpu0_ITLB RFO       ACCESS:          0  HIT:          0  MISS:          0\
cpu0_ITLB PREFETCH  ACCESS:          0  HIT:          0  MISS:          0\
cpu0_ITLB WRITEBACK ACCESS:          0  HIT:          0  MISS:          0\
cpu0_ITLB TRANSLATION ACCESS:          0  HIT:          0  MISS:          0\
cpu0_ITLB PREFETCH  REQUESTED:          0  ISSUED:          0  USEFUL:          0  USELESS:          0\
cpu0_ITLB AVERAGE MISS LATENCY: nan cycles\
cpu0_L1I TOTAL     ACCESS:     552762  HIT:     552762  MISS:          0\
cpu0_L1I LOAD      ACCESS:     552762  HIT:     552762  MISS:          0\
cpu0_L1I RFO       ACCESS:          0  HIT:          0  MISS:          0\
cpu0_L1I PREFETCH  ACCESS:          0  HIT:          0  MISS:          0\
cpu0_L1I WRITEBACK ACCESS:          0  HIT:          0  MISS:          0\
cpu0_L1I TRANSLATION ACCESS:          0  HIT:          0  MISS:          0\
cpu0_L1I PREFETCH  REQUESTED:          0  ISSUED:          0  USEFUL:          0  USELESS:          0\
cpu0_L1I AVERAGE MISS LATENCY: nan cycles\
cpu0_STLB TOTAL     ACCESS:      34047  HIT:      15571  MISS:      18476\
cpu0_STLB LOAD      ACCESS:       4621  HIT:          0  MISS:       4621\
cpu0_STLB RFO       ACCESS:      29426  HIT:      15571  MISS:      13855\
cpu0_STLB PREFETCH  ACCESS:          0  HIT:          0  MISS:          0\
cpu0_STLB WRITEBACK ACCESS:          0  HIT:          0  MISS:          0\
cpu0_STLB TRANSLATION ACCESS:          0  HIT:          0  MISS:          0\
cpu0_STLB PREFETCH  REQUESTED:          0  ISSUED:          0  USEFUL:          0  USELESS:          0\
cpu0_STLB AVERAGE MISS LATENCY: 981.496 cycles\
cpu0_L1D TOTAL     ACCESS:    5939138  HIT:    3988565  MISS:    1950573\
cpu0_L1D LOAD      ACCESS:    1445452  HIT:    1149902  MISS:     295550\
cpu0_L1D RFO       ACCESS:    4476051  HIT:    2821037  MISS:    1655014\
cpu0_L1D PREFETCH  ACCESS:          0  HIT:          0  MISS:          0\
cpu0_L1D WRITEBACK ACCESS:          0  HIT:          0  MISS:          0\
cpu0_L1D TRANSLATION ACCESS:      17635  HIT:      17626  MISS:          9\
cpu0_L1D PREFETCH  REQUESTED:          0  ISSUED:          0  USEFUL:          0  USELESS:          0\
cpu0_L1D AVERAGE MISS LATENCY: 810.905 cycles\
cpu0_L2C TOTAL     ACCESS:    3721821  HIT:    2454306  MISS:    1267515\
cpu0_L2C LOAD      ACCESS:     295550  HIT:      49514  MISS:     246036\
cpu0_L2C RFO       ACCESS:    1655014  HIT:     738749  MISS:     916265\
cpu0_L2C PREFETCH  ACCESS:     116211  HIT:      11061  MISS:     105150\
cpu0_L2C WRITEBACK ACCESS:    1655037  HIT:    1654982  MISS:         55\
cpu0_L2C TRANSLATION ACCESS:          9  HIT:          0  MISS:          9\
cpu0_L2C PREFETCH  REQUESTED:     210422  ISSUED:     206392  USEFUL:      54765  USELESS:      50414\
cpu0_L2C AVERAGE MISS LATENCY: 1342.95 cycles\
LLC TOTAL     ACCESS:    2259239  HIT:     985022  MISS:    1274217\
LLC LOAD      ACCESS:     246036  HIT:      30326  MISS:     215710\
LLC RFO       ACCESS:     916221  HIT:      29655  MISS:     886566\
LLC PREFETCH  ACCESS:     180852  HIT:       8968  MISS:     171884\
LLC WRITEBACK ACCESS:     916121  HIT:     916073  MISS:         48\
LLC TRANSLATION ACCESS:          9  HIT:          0  MISS:          9\
LLC PREFETCH  REQUESTED:          0  ISSUED:          0  USEFUL:          0  USELESS:          0\
LLC AVERAGE MISS LATENCY: 1426.25 cycles\
\
DRAM Statistics\
 CHANNEL 0\
 RQ ROW_BUFFER_HIT:     101573  ROW_BUFFER_MISS:    1172596\
 DBUS AVG_CONGESTED_CYCLE:    3.99807\
 WQ ROW_BUFFER_HIT:      13687  ROW_BUFFER_MISS:     872941  FULL:          0\
\
\
CPU 0 Branch Prediction Accuracy: 95.9842% MPKI: 0.71772 Average ROB Occupancy at Mispredict: 265.195\
Branch type MPKI\
BRANCH_DIRECT_JUMP: 0\
BRANCH_INDIRECT: 0\
BRANCH_CONDITIONAL: 0.71772\
BRANCH_DIRECT_CALL: 0\
BRANCH_INDIRECT_CALL: 0\
BRANCH_RETURN: 0\
}