{\rtf1\ansi\ansicpg1252\cocoartf2639
\cocoatextscaling0\cocoaplatform0{\fonttbl\f0\fswiss\fcharset0 Helvetica;}
{\colortbl;\red255\green255\blue255;}
{\*\expandedcolortbl;;}
\paperw11900\paperh16840\margl1440\margr1440\vieww11520\viewh8400\viewkind0
\pard\tx566\tx1133\tx1700\tx2267\tx2834\tx3401\tx3968\tx4535\tx5102\tx5669\tx6236\tx6803\pardirnatural\partightenfactor0

\f0\fs24 \cf0 *** ChampSim Multicore Out-of-Order Simulator ***\
\
Warmup Instructions: 25000000\
Simulation Instructions: 25000000\
Number of CPUs: 1\
Off-chip DRAM Size: 4 GiB Channels: 1 Width: 64-bit Data Rate: 3200 MT/s\
\
VirtualMemory physical capacity: 8588881920 num_ppages: 2096895\
VirtualMemory page size: 4096 log2_page_size: 12\
\
CPU 0 runs /Users/avaneeshsai/Downloads/619.lbm_s-2677B.champsimtrace.xz\
CPU 0 Bimodal branch predictor\
Basic BTB sets: 1024 ways: 8 indirect buffer size: 4096 RAS size: 64\
cpu0_L2C stream prefetcher \
Heartbeat CPU 0 instructions: 10000003 cycles: 2609703 heartbeat IPC: 3.83185 cumulative IPC: 3.83185 (Simulation time: 0 hr 0 min 34 sec) \
Heartbeat CPU 0 instructions: 20000001 cycles: 5214100 heartbeat IPC: 3.83966 cumulative IPC: 3.83575 (Simulation time: 0 hr 1 min 7 sec) \
\
Warmup complete CPU 0 instructions: 25000004 cycles: 6517125 (Simulation time: 0 hr 1 min 25 sec) \
\
Heartbeat CPU 0 instructions: 30000002 cycles: 31333189 heartbeat IPC: 0.382862 cumulative IPC: 0.201482 (Simulation time: 0 hr 3 min 40 sec) \
Heartbeat CPU 0 instructions: 40000004 cycles: 80835334 heartbeat IPC: 0.202011 cumulative IPC: 0.201835 (Simulation time: 0 hr 8 min 8 sec) \
Heartbeat CPU 0 instructions: 50000001 cycles: 131490685 heartbeat IPC: 0.197412 cumulative IPC: 0.200042 (Simulation time: 0 hr 12 min 44 sec) \
Finished CPU 0 instructions: 25000002 cycles: 124973561 cumulative IPC: 0.200042 (Simulation time: 0 hr 12 min 44 sec) \
\
ChampSim completed all CPUs\
\
Region of Interest Statistics\
\
CPU 0 cumulative IPC: 0.200042 instructions: 25000002 cycles: 124973561\
cpu0_DTLB TOTAL     ACCESS:    4447891  HIT:    4413844  MISS:      34047\
cpu0_DTLB LOAD      ACCESS:    1979347  HIT:    1974726  MISS:       4621\
cpu0_DTLB RFO       ACCESS:    2468544  HIT:    2439118  MISS:      29426\
cpu0_DTLB PREFETCH  ACCESS:          0  HIT:          0  MISS:          0\
cpu0_DTLB WRITEBACK ACCESS:          0  HIT:          0  MISS:          0\
cpu0_DTLB TRANSLATION ACCESS:          0  HIT:          0  MISS:          0\
cpu0_DTLB PREFETCH  REQUESTED:          0  ISSUED:          0  USEFUL:          0  USELESS:          0\
cpu0_DTLB AVERAGE MISS LATENCY: 553.69 cycles\
cpu0_ITLB TOTAL     ACCESS:     472941  HIT:     472941  MISS:          0\
cpu0_ITLB LOAD      ACCESS:     472941  HIT:     472941  MISS:          0\
cpu0_ITLB RFO       ACCESS:          0  HIT:          0  MISS:          0\
cpu0_ITLB PREFETCH  ACCESS:          0  HIT:          0  MISS:          0\
cpu0_ITLB WRITEBACK ACCESS:          0  HIT:          0  MISS:          0\
cpu0_ITLB TRANSLATION ACCESS:          0  HIT:          0  MISS:          0\
cpu0_ITLB PREFETCH  REQUESTED:          0  ISSUED:          0  USEFUL:          0  USELESS:          0\
cpu0_ITLB AVERAGE MISS LATENCY: nan cycles\
cpu0_L1I TOTAL     ACCESS:     549394  HIT:     549394  MISS:          0\
cpu0_L1I LOAD      ACCESS:     549394  HIT:     549394  MISS:          0\
cpu0_L1I RFO       ACCESS:          0  HIT:          0  MISS:          0\
cpu0_L1I PREFETCH  ACCESS:          0  HIT:          0  MISS:          0\
cpu0_L1I WRITEBACK ACCESS:          0  HIT:          0  MISS:          0\
cpu0_L1I TRANSLATION ACCESS:          0  HIT:          0  MISS:          0\
cpu0_L1I PREFETCH  REQUESTED:          0  ISSUED:          0  USEFUL:          0  USELESS:          0\
cpu0_L1I AVERAGE MISS LATENCY: nan cycles\
cpu0_STLB TOTAL     ACCESS:      34047  HIT:      15571  MISS:      18476\
cpu0_STLB LOAD      ACCESS:       4621  HIT:          0  MISS:       4621\
cpu0_STLB RFO       ACCESS:      29426  HIT:      15571  MISS:      13855\
cpu0_STLB PREFETCH  ACCESS:          0  HIT:          0  MISS:          0\
cpu0_STLB WRITEBACK ACCESS:          0  HIT:          0  MISS:          0\
cpu0_STLB TRANSLATION ACCESS:          0  HIT:          0  MISS:          0\
cpu0_STLB PREFETCH  REQUESTED:          0  ISSUED:          0  USEFUL:          0  USELESS:          0\
cpu0_STLB AVERAGE MISS LATENCY: 1003.59 cycles\
cpu0_L1D TOTAL     ACCESS:    5917873  HIT:    3967298  MISS:    1950575\
cpu0_L1D LOAD      ACCESS:    1404139  HIT:    1108589  MISS:     295550\
cpu0_L1D RFO       ACCESS:    4496205  HIT:    2841189  MISS:    1655016\
cpu0_L1D PREFETCH  ACCESS:          0  HIT:          0  MISS:          0\
cpu0_L1D WRITEBACK ACCESS:          0  HIT:          0  MISS:          0\
cpu0_L1D TRANSLATION ACCESS:      17529  HIT:      17520  MISS:          9\
cpu0_L1D PREFETCH  REQUESTED:          0  ISSUED:          0  USEFUL:          0  USELESS:          0\
cpu0_L1D AVERAGE MISS LATENCY: 809.575 cycles\
cpu0_L2C TOTAL     ACCESS:    3706089  HIT:    2396882  MISS:    1309207\
cpu0_L2C LOAD      ACCESS:     295550  HIT:          2  MISS:     295548\
cpu0_L2C RFO       ACCESS:    1655016  HIT:     736260  MISS:     918756\
cpu0_L2C PREFETCH  ACCESS:     100469  HIT:       5631  MISS:      94838\
cpu0_L2C WRITEBACK ACCESS:    1655045  HIT:    1654989  MISS:         56\
cpu0_L2C TRANSLATION ACCESS:          9  HIT:          0  MISS:          9\
cpu0_L2C PREFETCH  REQUESTED:     216030  ISSUED:     192160  USEFUL:       5283  USELESS:      89687\
cpu0_L2C AVERAGE MISS LATENCY: 1286.3 cycles\
LLC TOTAL     ACCESS:    2300372  HIT:     956457  MISS:    1343915\
LLC LOAD      ACCESS:     295548  HIT:         39  MISS:     295509\
LLC RFO       ACCESS:     918716  HIT:      32168  MISS:     886548\
LLC PREFETCH  ACCESS:     167592  HIT:       5791  MISS:     161801\
LLC WRITEBACK ACCESS:     918507  HIT:     918459  MISS:         48\
LLC TRANSLATION ACCESS:          9  HIT:          0  MISS:          9\
LLC PREFETCH  REQUESTED:          0  ISSUED:          0  USEFUL:          0  USELESS:          0\
LLC AVERAGE MISS LATENCY: 1323.67 cycles\
\
DRAM Statistics\
 CHANNEL 0\
 RQ ROW_BUFFER_HIT:     113287  ROW_BUFFER_MISS:    1230580\
 DBUS AVG_CONGESTED_CYCLE:    3.99622\
 WQ ROW_BUFFER_HIT:      11805  ROW_BUFFER_MISS:     874426  FULL:          0\
\
\
CPU 0 Branch Prediction Accuracy: 95.9842% MPKI: 0.71772 Average ROB Occupancy at Mispredict: 258.659\
Branch type MPKI\
BRANCH_DIRECT_JUMP: 0\
BRANCH_INDIRECT: 0\
BRANCH_CONDITIONAL: 0.71772\
BRANCH_DIRECT_CALL: 0\
BRANCH_INDIRECT_CALL: 0\
BRANCH_RETURN: 0}