{\rtf1\ansi\ansicpg1252\cocoartf2639
\cocoatextscaling0\cocoaplatform0{\fonttbl\f0\fswiss\fcharset0 Helvetica;}
{\colortbl;\red255\green255\blue255;}
{\*\expandedcolortbl;;}
\paperw11900\paperh16840\margl1440\margr1440\vieww11520\viewh8400\viewkind0
\pard\tx566\tx1133\tx1700\tx2267\tx2834\tx3401\tx3968\tx4535\tx5102\tx5669\tx6236\tx6803\pardirnatural\partightenfactor0

\f0\fs24 \cf0 \
*** ChampSim Multicore Out-of-Order Simulator ***\
\
Warmup Instructions: 25000000\
Simulation Instructions: 25000000\
Number of CPUs: 1\
Off-chip DRAM Size: 4 GiB Channels: 1 Width: 64-bit Data Rate: 3200 MT/s\
\
VirtualMemory physical capacity: 8588881920 num_ppages: 2096895\
VirtualMemory page size: 4096 log2_page_size: 12\
\
CPU 0 runs /Users/avaneeshsai/Downloads/619.lbm_s-2677B.champsimtrace.xz\
CPU 0 Bimodal branch predictor\
Basic BTB sets: 1024 ways: 8 indirect buffer size: 4096 RAS size: 64\
cpu0_L2C stream prefetcher \
Heartbeat CPU 0 instructions: 10000001 cycles: 2596479 heartbeat IPC: 3.85137 cumulative IPC: 3.85137 (Simulation time: 0 hr 0 min 33 sec) \
Heartbeat CPU 0 instructions: 20000001 cycles: 5187857 heartbeat IPC: 3.85895 cumulative IPC: 3.85516 (Simulation time: 0 hr 1 min 6 sec) \
\
Warmup complete CPU 0 instructions: 25000002 cycles: 6483982 (Simulation time: 0 hr 1 min 23 sec) \
\
Heartbeat CPU 0 instructions: 30000002 cycles: 30058371 heartbeat IPC: 0.402083 cumulative IPC: 0.212095 (Simulation time: 0 hr 3 min 34 sec) \
Heartbeat CPU 0 instructions: 40000004 cycles: 77047316 heartbeat IPC: 0.212816 cumulative IPC: 0.212575 (Simulation time: 0 hr 7 min 56 sec) \
Heartbeat CPU 0 instructions: 50000001 cycles: 125114447 heartbeat IPC: 0.208042 cumulative IPC: 0.210738 (Simulation time: 0 hr 12 min 27 sec) \
Finished CPU 0 instructions: 25000004 cycles: 118630466 cumulative IPC: 0.210738 (Simulation time: 0 hr 12 min 27 sec) \
\
ChampSim completed all CPUs\
\
Region of Interest Statistics\
\
CPU 0 cumulative IPC: 0.210738 instructions: 25000004 cycles: 118630466\
cpu0_DTLB TOTAL     ACCESS:    4477574  HIT:    4443527  MISS:      34047\
cpu0_DTLB LOAD      ACCESS:    2000167  HIT:    1995546  MISS:       4621\
cpu0_DTLB RFO       ACCESS:    2477407  HIT:    2447981  MISS:      29426\
cpu0_DTLB PREFETCH  ACCESS:          0  HIT:          0  MISS:          0\
cpu0_DTLB WRITEBACK ACCESS:          0  HIT:          0  MISS:          0\
cpu0_DTLB TRANSLATION ACCESS:          0  HIT:          0  MISS:          0\
cpu0_DTLB PREFETCH  REQUESTED:          0  ISSUED:          0  USEFUL:          0  USELESS:          0\
cpu0_DTLB AVERAGE MISS LATENCY: 506.053 cycles\
cpu0_ITLB TOTAL     ACCESS:     471784  HIT:     471784  MISS:          0\
cpu0_ITLB LOAD      ACCESS:     471784  HIT:     471784  MISS:          0\
cpu0_ITLB RFO       ACCESS:          0  HIT:          0  MISS:          0\
cpu0_ITLB PREFETCH  ACCESS:          0  HIT:          0  MISS:          0\
cpu0_ITLB WRITEBACK ACCESS:          0  HIT:          0  MISS:          0\
cpu0_ITLB TRANSLATION ACCESS:          0  HIT:          0  MISS:          0\
cpu0_ITLB PREFETCH  REQUESTED:          0  ISSUED:          0  USEFUL:          0  USELESS:          0\
cpu0_ITLB AVERAGE MISS LATENCY: nan cycles\
cpu0_L1I TOTAL     ACCESS:     552677  HIT:     552677  MISS:          0\
cpu0_L1I LOAD      ACCESS:     552677  HIT:     552677  MISS:          0\
cpu0_L1I RFO       ACCESS:          0  HIT:          0  MISS:          0\
cpu0_L1I PREFETCH  ACCESS:          0  HIT:          0  MISS:          0\
cpu0_L1I WRITEBACK ACCESS:          0  HIT:          0  MISS:          0\
cpu0_L1I TRANSLATION ACCESS:          0  HIT:          0  MISS:          0\
cpu0_L1I PREFETCH  REQUESTED:          0  ISSUED:          0  USEFUL:          0  USELESS:          0\
cpu0_L1I AVERAGE MISS LATENCY: nan cycles\
cpu0_STLB TOTAL     ACCESS:      34047  HIT:      15571  MISS:      18476\
cpu0_STLB LOAD      ACCESS:       4621  HIT:          0  MISS:       4621\
cpu0_STLB RFO       ACCESS:      29426  HIT:      15571  MISS:      13855\
cpu0_STLB PREFETCH  ACCESS:          0  HIT:          0  MISS:          0\
cpu0_STLB WRITEBACK ACCESS:          0  HIT:          0  MISS:          0\
cpu0_STLB TRANSLATION ACCESS:          0  HIT:          0  MISS:          0\
cpu0_STLB PREFETCH  REQUESTED:          0  ISSUED:          0  USEFUL:          0  USELESS:          0\
cpu0_STLB AVERAGE MISS LATENCY: 915.774 cycles\
cpu0_L1D TOTAL     ACCESS:    5921740  HIT:    3971178  MISS:    1950562\
cpu0_L1D LOAD      ACCESS:    1430578  HIT:    1135031  MISS:     295547\
cpu0_L1D RFO       ACCESS:    4473616  HIT:    2818610  MISS:    1655006\
cpu0_L1D PREFETCH  ACCESS:          0  HIT:          0  MISS:          0\
cpu0_L1D WRITEBACK ACCESS:          0  HIT:          0  MISS:          0\
cpu0_L1D TRANSLATION ACCESS:      17546  HIT:      17537  MISS:          9\
cpu0_L1D PREFETCH  REQUESTED:          0  ISSUED:          0  USEFUL:          0  USELESS:          0\
cpu0_L1D AVERAGE MISS LATENCY: 765.584 cycles\
cpu0_L2C TOTAL     ACCESS:    3700432  HIT:    2468560  MISS:    1231872\
cpu0_L2C LOAD      ACCESS:     295547  HIT:      66382  MISS:     229165\
cpu0_L2C RFO       ACCESS:    1655006  HIT:     741802  MISS:     913204\
cpu0_L2C PREFETCH  ACCESS:      94841  HIT:       5401  MISS:      89440\
cpu0_L2C WRITEBACK ACCESS:    1655029  HIT:    1654975  MISS:         54\
cpu0_L2C TRANSLATION ACCESS:          9  HIT:          0  MISS:          9\
cpu0_L2C PREFETCH  REQUESTED:     208514  ISSUED:     185489  USEFUL:      72199  USELESS:      21991\
cpu0_L2C AVERAGE MISS LATENCY: 1289.81 cycles\
LLC TOTAL     ACCESS:    2210680  HIT:     989072  MISS:    1221608\
LLC LOAD      ACCESS:     224435  HIT:      45056  MISS:     179379\
LLC RFO       ACCESS:     913176  HIT:      26610  MISS:     886566\
LLC PREFETCH  ACCESS:     159977  HIT:       4364  MISS:     155613\
LLC WRITEBACK ACCESS:     913083  HIT:     913042  MISS:         41\
LLC TRANSLATION ACCESS:          9  HIT:          0  MISS:          9\
LLC PREFETCH  REQUESTED:          0  ISSUED:          0  USEFUL:          0  USELESS:          0\
LLC AVERAGE MISS LATENCY: 1383.65 cycles\
\
DRAM Statistics\
 CHANNEL 0\
 RQ ROW_BUFFER_HIT:      74887  ROW_BUFFER_MISS:    1146680\
 DBUS AVG_CONGESTED_CYCLE:    3.99762\
 WQ ROW_BUFFER_HIT:      17211  ROW_BUFFER_MISS:     869133  FULL:          0\
\
\
CPU 0 Branch Prediction Accuracy: 95.9842% MPKI: 0.71772 Average ROB Occupancy at Mispredict: 263.404\
Branch type MPKI\
BRANCH_DIRECT_JUMP: 0\
BRANCH_INDIRECT: 0\
BRANCH_CONDITIONAL: 0.71772\
BRANCH_DIRECT_CALL: 0\
BRANCH_INDIRECT_CALL: 0\
BRANCH_RETURN: 0}