{\rtf1\ansi\ansicpg1252\cocoartf2639
\cocoatextscaling0\cocoaplatform0{\fonttbl\f0\fswiss\fcharset0 Helvetica;}
{\colortbl;\red255\green255\blue255;}
{\*\expandedcolortbl;;}
\paperw11900\paperh16840\margl1440\margr1440\vieww11520\viewh8400\viewkind0
\pard\tx566\tx1133\tx1700\tx2267\tx2834\tx3401\tx3968\tx4535\tx5102\tx5669\tx6236\tx6803\pardirnatural\partightenfactor0

\f0\fs24 \cf0 *** ChampSim Multicore Out-of-Order Simulator ***\
\
Warmup Instructions: 25000000\
Simulation Instructions: 25000000\
Number of CPUs: 1\
Off-chip DRAM Size: 4 GiB Channels: 1 Width: 64-bit Data Rate: 3200 MT/s\
\
VirtualMemory physical capacity: 8588881920 num_ppages: 2096895\
VirtualMemory page size: 4096 log2_page_size: 12\
\
CPU 0 runs /Users/avaneeshsai/Downloads/619.lbm_s-2677B.champsimtrace.xz\
CPU 0 Bimodal branch predictor\
Basic BTB sets: 1024 ways: 8 indirect buffer size: 4096 RAS size: 64\
cpu0_L2C stream prefetcher \
Heartbeat CPU 0 instructions: 10000003 cycles: 2596859 heartbeat IPC: 3.85081 cumulative IPC: 3.85081 (Simulation time: 0 hr 0 min 33 sec) \
Heartbeat CPU 0 instructions: 20000001 cycles: 5188426 heartbeat IPC: 3.85867 cumulative IPC: 3.85473 (Simulation time: 0 hr 1 min 6 sec) \
\
Warmup complete CPU 0 instructions: 25000002 cycles: 6484835 (Simulation time: 0 hr 1 min 25 sec) \
\
Heartbeat CPU 0 instructions: 30000002 cycles: 30381656 heartbeat IPC: 0.396932 cumulative IPC: 0.209233 (Simulation time: 0 hr 3 min 39 sec) \
Heartbeat CPU 0 instructions: 40000004 cycles: 77937513 heartbeat IPC: 0.210279 cumulative IPC: 0.209929 (Simulation time: 0 hr 8 min 14 sec) \
Heartbeat CPU 0 instructions: 50000001 cycles: 126677163 heartbeat IPC: 0.205172 cumulative IPC: 0.208 (Simulation time: 0 hr 12 min 50 sec) \
Finished CPU 0 instructions: 25000004 cycles: 120192329 cumulative IPC: 0.208 (Simulation time: 0 hr 12 min 50 sec) \
\
ChampSim completed all CPUs\
\
Region of Interest Statistics\
\
CPU 0 cumulative IPC: 0.208 instructions: 25000004 cycles: 120192329\
cpu0_DTLB TOTAL     ACCESS:    4458213  HIT:    4424166  MISS:      34047\
cpu0_DTLB LOAD      ACCESS:    1980087  HIT:    1975466  MISS:       4621\
cpu0_DTLB RFO       ACCESS:    2478126  HIT:    2448700  MISS:      29426\
cpu0_DTLB PREFETCH  ACCESS:          0  HIT:          0  MISS:          0\
cpu0_DTLB WRITEBACK ACCESS:          0  HIT:          0  MISS:          0\
cpu0_DTLB TRANSLATION ACCESS:          0  HIT:          0  MISS:          0\
cpu0_DTLB PREFETCH  REQUESTED:          0  ISSUED:          0  USEFUL:          0  USELESS:          0\
cpu0_DTLB AVERAGE MISS LATENCY: 486.033 cycles\
cpu0_ITLB TOTAL     ACCESS:     472152  HIT:     472152  MISS:          0\
cpu0_ITLB LOAD      ACCESS:     472152  HIT:     472152  MISS:          0\
cpu0_ITLB RFO       ACCESS:          0  HIT:          0  MISS:          0\
cpu0_ITLB PREFETCH  ACCESS:          0  HIT:          0  MISS:          0\
cpu0_ITLB WRITEBACK ACCESS:          0  HIT:          0  MISS:          0\
cpu0_ITLB TRANSLATION ACCESS:          0  HIT:          0  MISS:          0\
cpu0_ITLB PREFETCH  REQUESTED:          0  ISSUED:          0  USEFUL:          0  USELESS:          0\
cpu0_ITLB AVERAGE MISS LATENCY: nan cycles\
cpu0_L1I TOTAL     ACCESS:     544320  HIT:     544320  MISS:          0\
cpu0_L1I LOAD      ACCESS:     544320  HIT:     544320  MISS:          0\
cpu0_L1I RFO       ACCESS:          0  HIT:          0  MISS:          0\
cpu0_L1I PREFETCH  ACCESS:          0  HIT:          0  MISS:          0\
cpu0_L1I WRITEBACK ACCESS:          0  HIT:          0  MISS:          0\
cpu0_L1I TRANSLATION ACCESS:          0  HIT:          0  MISS:          0\
cpu0_L1I PREFETCH  REQUESTED:          0  ISSUED:          0  USEFUL:          0  USELESS:          0\
cpu0_L1I AVERAGE MISS LATENCY: nan cycles\
cpu0_STLB TOTAL     ACCESS:      34047  HIT:      15571  MISS:      18476\
cpu0_STLB LOAD      ACCESS:       4621  HIT:          0  MISS:       4621\
cpu0_STLB RFO       ACCESS:      29426  HIT:      15571  MISS:      13855\
cpu0_STLB PREFETCH  ACCESS:          0  HIT:          0  MISS:          0\
cpu0_STLB WRITEBACK ACCESS:          0  HIT:          0  MISS:          0\
cpu0_STLB TRANSLATION ACCESS:          0  HIT:          0  MISS:          0\
cpu0_STLB PREFETCH  REQUESTED:          0  ISSUED:          0  USEFUL:          0  USELESS:          0\
cpu0_STLB AVERAGE MISS LATENCY: 878.88 cycles\
cpu0_L1D TOTAL     ACCESS:    5883097  HIT:    3932526  MISS:    1950571\
cpu0_L1D LOAD      ACCESS:    1406214  HIT:    1110666  MISS:     295548\
cpu0_L1D RFO       ACCESS:    4459279  HIT:    2804265  MISS:    1655014\
cpu0_L1D PREFETCH  ACCESS:          0  HIT:          0  MISS:          0\
cpu0_L1D WRITEBACK ACCESS:          0  HIT:          0  MISS:          0\
cpu0_L1D TRANSLATION ACCESS:      17604  HIT:      17595  MISS:          9\
cpu0_L1D PREFETCH  REQUESTED:          0  ISSUED:          0  USEFUL:          0  USELESS:          0\
cpu0_L1D AVERAGE MISS LATENCY: 807.49 cycles\
cpu0_L2C TOTAL     ACCESS:    3712007  HIT:    2478992  MISS:    1233015\
cpu0_L2C LOAD      ACCESS:     295548  HIT:      72762  MISS:     222786\
cpu0_L2C RFO       ACCESS:    1655014  HIT:     741636  MISS:     913378\
cpu0_L2C PREFETCH  ACCESS:     106401  HIT:       9613  MISS:      96788\
cpu0_L2C WRITEBACK ACCESS:    1655035  HIT:    1654981  MISS:         54\
cpu0_L2C TRANSLATION ACCESS:          9  HIT:          0  MISS:          9\
cpu0_L2C PREFETCH  REQUESTED:     206336  ISSUED:     202388  USEFUL:      77697  USELESS:      23011\
cpu0_L2C AVERAGE MISS LATENCY: 1364.31 cycles\
LLC TOTAL     ACCESS:    2223874  HIT:     998105  MISS:    1225769\
LLC LOAD      ACCESS:     218897  HIT:      47401  MISS:     171496\
LLC RFO       ACCESS:     913341  HIT:      26764  MISS:     886577\
LLC PREFETCH  ACCESS:     178401  HIT:      10758  MISS:     167643\
LLC WRITEBACK ACCESS:     913226  HIT:     913182  MISS:         44\
LLC TRANSLATION ACCESS:          9  HIT:          0  MISS:          9\
LLC PREFETCH  REQUESTED:          0  ISSUED:          0  USEFUL:          0  USELESS:          0\
LLC AVERAGE MISS LATENCY: 1476.18 cycles\
\
DRAM Statistics\
 CHANNEL 0\
 RQ ROW_BUFFER_HIT:      83555  ROW_BUFFER_MISS:    1142170\
 DBUS AVG_CONGESTED_CYCLE:    3.99907\
 WQ ROW_BUFFER_HIT:      17622  ROW_BUFFER_MISS:     868870  FULL:          0\
\
\
CPU 0 Branch Prediction Accuracy: 95.9842% MPKI: 0.71772 Average ROB Occupancy at Mispredict: 264.479\
Branch type MPKI\
BRANCH_DIRECT_JUMP: 0\
BRANCH_INDIRECT: 0\
BRANCH_CONDITIONAL: 0.71772\
BRANCH_DIRECT_CALL: 0\
BRANCH_INDIRECT_CALL: 0\
BRANCH_RETURN: 0}