{\rtf1\ansi\ansicpg1252\cocoartf2639
\cocoatextscaling0\cocoaplatform0{\fonttbl\f0\fnil\fcharset0 Menlo-Regular;}
{\colortbl;\red255\green255\blue255;\red0\green0\blue0;}
{\*\expandedcolortbl;;\csgray\c0;}
\paperw11900\paperh16840\margl1440\margr1440\vieww11520\viewh8400\viewkind0
\pard\tx560\tx1120\tx1680\tx2240\tx2800\tx3360\tx3920\tx4480\tx5040\tx5600\tx6160\tx6720\pardirnatural\partightenfactor0

\f0\fs22 \cf2 \CocoaLigature0 *** ChampSim Multicore Out-of-Order Simulator ***\
\
Warmup Instructions: 25000000\
Simulation Instructions: 25000000\
Number of CPUs: 1\
Off-chip DRAM Size: 4 GiB Channels: 1 Width: 64-bit Data Rate: 3200 MT/s\
\
VirtualMemory physical capacity: 8588881920 num_ppages: 2096895\
VirtualMemory page size: 4096 log2_page_size: 12\
\
CPU 0 runs /Users/avaneeshsai/Downloads/bc-0.trace.gz\
CPU 0 Bimodal branch predictor\
Basic BTB sets: 1024 ways: 8 indirect buffer size: 4096 RAS size: 64\
cpu0_L2C stream prefetcher \
Heartbeat CPU 0 instructions: 10000002 cycles: 3203429 heartbeat IPC: 3.12166 cumulative IPC: 3.12166 (Simulation time: 0 hr 0 min 54 sec) \
Heartbeat CPU 0 instructions: 20000001 cycles: 5712254 heartbeat IPC: 3.98593 cumulative IPC: 3.50125 (Simulation time: 0 hr 1 min 34 sec) \
\
Warmup complete CPU 0 instructions: 25000001 cycles: 6963686 (Simulation time: 0 hr 1 min 52 sec) \
\
Heartbeat CPU 0 instructions: 30000001 cycles: 43355773 heartbeat IPC: 0.26565 cumulative IPC: 0.137393 (Simulation time: 0 hr 2 min 46 sec) \
Heartbeat CPU 0 instructions: 40000002 cycles: 117953729 heartbeat IPC: 0.134052 cumulative IPC: 0.135147 (Simulation time: 0 hr 4 min 16 sec) \
Heartbeat CPU 0 instructions: 50000002 cycles: 192499392 heartbeat IPC: 0.134146 cumulative IPC: 0.134745 (Simulation time: 0 hr 5 min 38 sec) \
Finished CPU 0 instructions: 25000001 cycles: 185535706 cumulative IPC: 0.134745 (Simulation time: 0 hr 5 min 38 sec) \
\
ChampSim completed all CPUs\
\
Region of Interest Statistics\
\
CPU 0 cumulative IPC: 0.134745 instructions: 25000001 cycles: 185535706\
cpu0_DTLB TOTAL     ACCESS:    5781964  HIT:    5048180  MISS:     733784\
cpu0_DTLB LOAD      ACCESS:    4553940  HIT:    4075952  MISS:     477988\
cpu0_DTLB RFO       ACCESS:    1228024  HIT:     972228  MISS:     255796\
cpu0_DTLB PREFETCH  ACCESS:          0  HIT:          0  MISS:          0\
cpu0_DTLB WRITEBACK ACCESS:          0  HIT:          0  MISS:          0\
cpu0_DTLB TRANSLATION ACCESS:          0  HIT:          0  MISS:          0\
cpu0_DTLB PREFETCH  REQUESTED:          0  ISSUED:          0  USEFUL:          0  USELESS:          0\
cpu0_DTLB AVERAGE MISS LATENCY: 13.8316 cycles\
cpu0_ITLB TOTAL     ACCESS:    3107160  HIT:    3107160  MISS:          0\
cpu0_ITLB LOAD      ACCESS:    3107160  HIT:    3107160  MISS:          0\
cpu0_ITLB RFO       ACCESS:          0  HIT:          0  MISS:          0\
cpu0_ITLB PREFETCH  ACCESS:          0  HIT:          0  MISS:          0\
cpu0_ITLB WRITEBACK ACCESS:          0  HIT:          0  MISS:          0\
cpu0_ITLB TRANSLATION ACCESS:          0  HIT:          0  MISS:          0\
cpu0_ITLB PREFETCH  REQUESTED:          0  ISSUED:          0  USEFUL:          0  USELESS:          0\
cpu0_ITLB AVERAGE MISS LATENCY: nan cycles\
cpu0_L1I TOTAL     ACCESS:         86  HIT:         86  MISS:          0\
cpu0_L1I LOAD      ACCESS:         86  HIT:         86  MISS:          0\
cpu0_L1I RFO       ACCESS:          0  HIT:          0  MISS:          0\
cpu0_L1I PREFETCH  ACCESS:          0  HIT:          0  MISS:          0\
cpu0_L1I WRITEBACK ACCESS:          0  HIT:          0  MISS:          0\
cpu0_L1I TRANSLATION ACCESS:          0  HIT:          0  MISS:          0\
cpu0_L1I PREFETCH  REQUESTED:          0  ISSUED:          0  USEFUL:          0  USELESS:          0\
cpu0_L1I AVERAGE MISS LATENCY: nan cycles\
cpu0_STLB TOTAL     ACCESS:     733784  HIT:     397126  MISS:     336658\
cpu0_STLB LOAD      ACCESS:     477988  HIT:     310197  MISS:     167791\
cpu0_STLB RFO       ACCESS:     255796  HIT:      86929  MISS:     168867\
cpu0_STLB PREFETCH  ACCESS:          0  HIT:          0  MISS:          0\
cpu0_STLB WRITEBACK ACCESS:          0  HIT:          0  MISS:          0\
cpu0_STLB TRANSLATION ACCESS:          0  HIT:          0  MISS:          0\
cpu0_STLB PREFETCH  REQUESTED:          0  ISSUED:          0  USEFUL:          0  USELESS:          0\
cpu0_STLB AVERAGE MISS LATENCY: 10.3459 cycles\
cpu0_L1D TOTAL     ACCESS:    6846153  HIT:    4759461  MISS:    2086692\
cpu0_L1D LOAD      ACCESS:    5220069  HIT:    3145803  MISS:    2074266\
cpu0_L1D RFO       ACCESS:    1299007  HIT:    1287975  MISS:      11032\
cpu0_L1D PREFETCH  ACCESS:          0  HIT:          0  MISS:          0\
cpu0_L1D WRITEBACK ACCESS:          0  HIT:          0  MISS:          0\
cpu0_L1D TRANSLATION ACCESS:     327077  HIT:     325683  MISS:       1394\
cpu0_L1D PREFETCH  REQUESTED:          0  ISSUED:          0  USEFUL:          0  USELESS:          0\
cpu0_L1D AVERAGE MISS LATENCY: 168.974 cycles\
cpu0_L2C TOTAL     ACCESS:    2847752  HIT:     887965  MISS:    1959787\
cpu0_L2C LOAD      ACCESS:    2074266  HIT:     234545  MISS:    1839721\
cpu0_L2C RFO       ACCESS:      11032  HIT:         92  MISS:      10940\
cpu0_L2C PREFETCH  ACCESS:     112239  HIT:       3176  MISS:     109063\
cpu0_L2C WRITEBACK ACCESS:     648821  HIT:     648809  MISS:         12\
cpu0_L2C TRANSLATION ACCESS:       1394  HIT:       1343  MISS:         51\
cpu0_L2C PREFETCH  REQUESTED:     120774  ISSUED:     117938  USEFUL:      13616  USELESS:      96375\
cpu0_L2C AVERAGE MISS LATENCY: 183.676 cycles\
LLC TOTAL     ACCESS:    2597433  HIT:    1263207  MISS:    1334226\
LLC LOAD      ACCESS:    1839189  HIT:     613150  MISS:    1226039\
LLC RFO       ACCESS:      10940  HIT:        580  MISS:      10360\
LLC PREFETCH  ACCESS:     112885  HIT:      15170  MISS:      97715\
LLC WRITEBACK ACCESS:     634368  HIT:     634295  MISS:         73\
LLC TRANSLATION ACCESS:         51  HIT:         12  MISS:         39\
LLC PREFETCH  REQUESTED:          0  ISSUED:          0  USEFUL:          0  USELESS:          0\
LLC AVERAGE MISS LATENCY: 242.373 cycles\
\
DRAM Statistics\
 CHANNEL 0\
 RQ ROW_BUFFER_HIT:      95818  ROW_BUFFER_MISS:    1237616\
 DBUS AVG_CONGESTED_CYCLE:    3.95532\
 WQ ROW_BUFFER_HIT:       1072  ROW_BUFFER_MISS:     542132  FULL:          0\
\
\
CPU 0 Branch Prediction Accuracy: 81.1279% MPKI: 35.6282 Average ROB Occupancy at Mispredict: 22.6392\
Branch type MPKI\
BRANCH_DIRECT_JUMP: 0\
BRANCH_INDIRECT: 0\
BRANCH_CONDITIONAL: 35.6282\
BRANCH_DIRECT_CALL: 0\
BRANCH_INDIRECT_CALL: 0\
BRANCH_RETURN: 0}