{\rtf1\ansi\ansicpg1252\cocoartf2639
\cocoatextscaling0\cocoaplatform0{\fonttbl\f0\fnil\fcharset0 Menlo-Regular;}
{\colortbl;\red255\green255\blue255;\red0\green0\blue0;}
{\*\expandedcolortbl;;\csgray\c0;}
\paperw11900\paperh16840\margl1440\margr1440\vieww11520\viewh8400\viewkind0
\pard\tx560\tx1120\tx1680\tx2240\tx2800\tx3360\tx3920\tx4480\tx5040\tx5600\tx6160\tx6720\pardirnatural\partightenfactor0

\f0\fs22 \cf2 \CocoaLigature0 *** ChampSim Multicore Out-of-Order Simulator ***\
\
Warmup Instructions: 25000000\
Simulation Instructions: 25000000\
Number of CPUs: 1\
Off-chip DRAM Size: 4 GiB Channels: 1 Width: 64-bit Data Rate: 3200 MT/s\
\
VirtualMemory physical capacity: 8588881920 num_ppages: 2096895\
VirtualMemory page size: 4096 log2_page_size: 12\
\
CPU 0 runs /Users/avaneeshsai/Downloads/bc-0.trace.gz\
CPU 0 Bimodal branch predictor\
Basic BTB sets: 1024 ways: 8 indirect buffer size: 4096 RAS size: 64\
cpu0_L2C stream prefetcher \
Heartbeat CPU 0 instructions: 10000002 cycles: 3203425 heartbeat IPC: 3.12166 cumulative IPC: 3.12166 (Simulation time: 0 hr 0 min 52 sec) \
Heartbeat CPU 0 instructions: 20000002 cycles: 5712252 heartbeat IPC: 3.98593 cumulative IPC: 3.50125 (Simulation time: 0 hr 1 min 37 sec) \
\
Warmup complete CPU 0 instructions: 25000003 cycles: 6963685 (Simulation time: 0 hr 1 min 59 sec) \
\
Heartbeat CPU 0 instructions: 30000001 cycles: 43224139 heartbeat IPC: 0.266582 cumulative IPC: 0.137891 (Simulation time: 0 hr 2 min 53 sec) \
Heartbeat CPU 0 instructions: 40000002 cycles: 117472236 heartbeat IPC: 0.134684 cumulative IPC: 0.135736 (Simulation time: 0 hr 4 min 32 sec) \
Heartbeat CPU 0 instructions: 50000002 cycles: 191644857 heartbeat IPC: 0.134821 cumulative IPC: 0.135368 (Simulation time: 0 hr 5 min 56 sec) \
Finished CPU 0 instructions: 25000004 cycles: 184681173 cumulative IPC: 0.135368 (Simulation time: 0 hr 5 min 56 sec) \
\
ChampSim completed all CPUs\
\
Region of Interest Statistics\
\
CPU 0 cumulative IPC: 0.135368 instructions: 25000004 cycles: 184681173\
cpu0_DTLB TOTAL     ACCESS:    5781628  HIT:    5047844  MISS:     733784\
cpu0_DTLB LOAD      ACCESS:    4553836  HIT:    4075851  MISS:     477985\
cpu0_DTLB RFO       ACCESS:    1227792  HIT:     971993  MISS:     255799\
cpu0_DTLB PREFETCH  ACCESS:          0  HIT:          0  MISS:          0\
cpu0_DTLB WRITEBACK ACCESS:          0  HIT:          0  MISS:          0\
cpu0_DTLB TRANSLATION ACCESS:          0  HIT:          0  MISS:          0\
cpu0_DTLB PREFETCH  REQUESTED:          0  ISSUED:          0  USEFUL:          0  USELESS:          0\
cpu0_DTLB AVERAGE MISS LATENCY: 13.8339 cycles\
cpu0_ITLB TOTAL     ACCESS:    3107160  HIT:    3107160  MISS:          0\
cpu0_ITLB LOAD      ACCESS:    3107160  HIT:    3107160  MISS:          0\
cpu0_ITLB RFO       ACCESS:          0  HIT:          0  MISS:          0\
cpu0_ITLB PREFETCH  ACCESS:          0  HIT:          0  MISS:          0\
cpu0_ITLB WRITEBACK ACCESS:          0  HIT:          0  MISS:          0\
cpu0_ITLB TRANSLATION ACCESS:          0  HIT:          0  MISS:          0\
cpu0_ITLB PREFETCH  REQUESTED:          0  ISSUED:          0  USEFUL:          0  USELESS:          0\
cpu0_ITLB AVERAGE MISS LATENCY: nan cycles\
cpu0_L1I TOTAL     ACCESS:         86  HIT:         86  MISS:          0\
cpu0_L1I LOAD      ACCESS:         86  HIT:         86  MISS:          0\
cpu0_L1I RFO       ACCESS:          0  HIT:          0  MISS:          0\
cpu0_L1I PREFETCH  ACCESS:          0  HIT:          0  MISS:          0\
cpu0_L1I WRITEBACK ACCESS:          0  HIT:          0  MISS:          0\
cpu0_L1I TRANSLATION ACCESS:          0  HIT:          0  MISS:          0\
cpu0_L1I PREFETCH  REQUESTED:          0  ISSUED:          0  USEFUL:          0  USELESS:          0\
cpu0_L1I AVERAGE MISS LATENCY: nan cycles\
cpu0_STLB TOTAL     ACCESS:     733784  HIT:     397126  MISS:     336658\
cpu0_STLB LOAD      ACCESS:     477985  HIT:     310198  MISS:     167787\
cpu0_STLB RFO       ACCESS:     255799  HIT:      86928  MISS:     168871\
cpu0_STLB PREFETCH  ACCESS:          0  HIT:          0  MISS:          0\
cpu0_STLB WRITEBACK ACCESS:          0  HIT:          0  MISS:          0\
cpu0_STLB TRANSLATION ACCESS:          0  HIT:          0  MISS:          0\
cpu0_STLB PREFETCH  REQUESTED:          0  ISSUED:          0  USEFUL:          0  USELESS:          0\
cpu0_STLB AVERAGE MISS LATENCY: 10.351 cycles\
cpu0_L1D TOTAL     ACCESS:    6846385  HIT:    4759693  MISS:    2086692\
cpu0_L1D LOAD      ACCESS:    5220315  HIT:    3146049  MISS:    2074266\
cpu0_L1D RFO       ACCESS:    1298991  HIT:    1287959  MISS:      11032\
cpu0_L1D PREFETCH  ACCESS:          0  HIT:          0  MISS:          0\
cpu0_L1D WRITEBACK ACCESS:          0  HIT:          0  MISS:          0\
cpu0_L1D TRANSLATION ACCESS:     327079  HIT:     325685  MISS:       1394\
cpu0_L1D PREFETCH  REQUESTED:          0  ISSUED:          0  USEFUL:          0  USELESS:          0\
cpu0_L1D AVERAGE MISS LATENCY: 167.679 cycles\
cpu0_L2C TOTAL     ACCESS:    2816372  HIT:     886648  MISS:    1929724\
cpu0_L2C LOAD      ACCESS:    2074266  HIT:     233810  MISS:    1840456\
cpu0_L2C RFO       ACCESS:      11032  HIT:         93  MISS:      10939\
cpu0_L2C PREFETCH  ACCESS:      80860  HIT:       2594  MISS:      78266\
cpu0_L2C WRITEBACK ACCESS:     648820  HIT:     648808  MISS:         12\
cpu0_L2C TRANSLATION ACCESS:       1394  HIT:       1343  MISS:         51\
cpu0_L2C PREFETCH  REQUESTED:      88291  ISSUED:      85820  USEFUL:      10382  USELESS:      68610\
cpu0_L2C AVERAGE MISS LATENCY: 180.091 cycles\
LLC TOTAL     ACCESS:    2567093  HIT:    1267193  MISS:    1299900\
LLC LOAD      ACCESS:    1840030  HIT:     620981  MISS:    1219049\
LLC RFO       ACCESS:      10939  HIT:        586  MISS:      10353\
LLC PREFETCH  ACCESS:      81892  HIT:      11507  MISS:      70385\
LLC WRITEBACK ACCESS:     634181  HIT:     634107  MISS:         74\
LLC TRANSLATION ACCESS:         51  HIT:         12  MISS:         39\
LLC PREFETCH  REQUESTED:          0  ISSUED:          0  USEFUL:          0  USELESS:          0\
LLC AVERAGE MISS LATENCY: 239.428 cycles\
\
DRAM Statistics\
 CHANNEL 0\
 RQ ROW_BUFFER_HIT:      81342  ROW_BUFFER_MISS:    1217818\
 DBUS AVG_CONGESTED_CYCLE:    3.95596\
 WQ ROW_BUFFER_HIT:       1040  ROW_BUFFER_MISS:     539966  FULL:          0\
\
\
CPU 0 Branch Prediction Accuracy: 81.1279% MPKI: 35.6282 Average ROB Occupancy at Mispredict: 22.6154\
Branch type MPKI\
BRANCH_DIRECT_JUMP: 0\
BRANCH_INDIRECT: 0\
BRANCH_CONDITIONAL: 35.6282\
BRANCH_DIRECT_CALL: 0\
BRANCH_INDIRECT_CALL: 0\
BRANCH_RETURN: 0}