{\rtf1\ansi\ansicpg1252\cocoartf2639
\cocoatextscaling0\cocoaplatform0{\fonttbl\f0\fnil\fcharset0 Menlo-Regular;}
{\colortbl;\red255\green255\blue255;\red0\green0\blue0;}
{\*\expandedcolortbl;;\csgray\c0;}
\paperw11900\paperh16840\margl1440\margr1440\vieww11520\viewh8400\viewkind0
\pard\tx560\tx1120\tx1680\tx2240\tx2800\tx3360\tx3920\tx4480\tx5040\tx5600\tx6160\tx6720\pardirnatural\partightenfactor0

\f0\fs22 \cf2 \CocoaLigature0 *** ChampSim Multicore Out-of-Order Simulator ***\
\
Warmup Instructions: 25000000\
Simulation Instructions: 25000000\
Number of CPUs: 1\
Off-chip DRAM Size: 4 GiB Channels: 1 Width: 64-bit Data Rate: 3200 MT/s\
\
VirtualMemory physical capacity: 8588881920 num_ppages: 2096895\
VirtualMemory page size: 4096 log2_page_size: 12\
\
CPU 0 runs /Users/avaneeshsai/Downloads/bc-0.trace.gz\
CPU 0 Bimodal branch predictor\
Basic BTB sets: 1024 ways: 8 indirect buffer size: 4096 RAS size: 64\
cpu0_L2C stream prefetcher \
Heartbeat CPU 0 instructions: 10000002 cycles: 3203423 heartbeat IPC: 3.12166 cumulative IPC: 3.12166 (Simulation time: 0 hr 0 min 56 sec) \
Heartbeat CPU 0 instructions: 20000001 cycles: 5712250 heartbeat IPC: 3.98593 cumulative IPC: 3.50125 (Simulation time: 0 hr 1 min 36 sec) \
\
Warmup complete CPU 0 instructions: 25000004 cycles: 6963683 (Simulation time: 0 hr 1 min 53 sec) \
\
Heartbeat CPU 0 instructions: 30000001 cycles: 43003576 heartbeat IPC: 0.268159 cumulative IPC: 0.138735 (Simulation time: 0 hr 2 min 40 sec) \
Heartbeat CPU 0 instructions: 40000002 cycles: 116767956 heartbeat IPC: 0.135567 cumulative IPC: 0.136607 (Simulation time: 0 hr 4 min 7 sec) \
Heartbeat CPU 0 instructions: 50000002 cycles: 190342674 heartbeat IPC: 0.135916 cumulative IPC: 0.13633 (Simulation time: 0 hr 5 min 28 sec) \
Finished CPU 0 instructions: 25000003 cycles: 183378992 cumulative IPC: 0.13633 (Simulation time: 0 hr 5 min 28 sec) \
\
ChampSim completed all CPUs\
\
Region of Interest Statistics\
\
CPU 0 cumulative IPC: 0.13633 instructions: 25000003 cycles: 183378992\
cpu0_DTLB TOTAL     ACCESS:    5781272  HIT:    5047490  MISS:     733782\
cpu0_DTLB LOAD      ACCESS:    4553294  HIT:    4075304  MISS:     477990\
cpu0_DTLB RFO       ACCESS:    1227978  HIT:     972186  MISS:     255792\
cpu0_DTLB PREFETCH  ACCESS:          0  HIT:          0  MISS:          0\
cpu0_DTLB WRITEBACK ACCESS:          0  HIT:          0  MISS:          0\
cpu0_DTLB TRANSLATION ACCESS:          0  HIT:          0  MISS:          0\
cpu0_DTLB PREFETCH  REQUESTED:          0  ISSUED:          0  USEFUL:          0  USELESS:          0\
cpu0_DTLB AVERAGE MISS LATENCY: 13.8555 cycles\
cpu0_ITLB TOTAL     ACCESS:    3107161  HIT:    3107161  MISS:          0\
cpu0_ITLB LOAD      ACCESS:    3107161  HIT:    3107161  MISS:          0\
cpu0_ITLB RFO       ACCESS:          0  HIT:          0  MISS:          0\
cpu0_ITLB PREFETCH  ACCESS:          0  HIT:          0  MISS:          0\
cpu0_ITLB WRITEBACK ACCESS:          0  HIT:          0  MISS:          0\
cpu0_ITLB TRANSLATION ACCESS:          0  HIT:          0  MISS:          0\
cpu0_ITLB PREFETCH  REQUESTED:          0  ISSUED:          0  USEFUL:          0  USELESS:          0\
cpu0_ITLB AVERAGE MISS LATENCY: nan cycles\
cpu0_L1I TOTAL     ACCESS:         86  HIT:         86  MISS:          0\
cpu0_L1I LOAD      ACCESS:         86  HIT:         86  MISS:          0\
cpu0_L1I RFO       ACCESS:          0  HIT:          0  MISS:          0\
cpu0_L1I PREFETCH  ACCESS:          0  HIT:          0  MISS:          0\
cpu0_L1I WRITEBACK ACCESS:          0  HIT:          0  MISS:          0\
cpu0_L1I TRANSLATION ACCESS:          0  HIT:          0  MISS:          0\
cpu0_L1I PREFETCH  REQUESTED:          0  ISSUED:          0  USEFUL:          0  USELESS:          0\
cpu0_L1I AVERAGE MISS LATENCY: nan cycles\
cpu0_STLB TOTAL     ACCESS:     733782  HIT:     397124  MISS:     336658\
cpu0_STLB LOAD      ACCESS:     477990  HIT:     310201  MISS:     167789\
cpu0_STLB RFO       ACCESS:     255792  HIT:      86923  MISS:     168869\
cpu0_STLB PREFETCH  ACCESS:          0  HIT:          0  MISS:          0\
cpu0_STLB WRITEBACK ACCESS:          0  HIT:          0  MISS:          0\
cpu0_STLB TRANSLATION ACCESS:          0  HIT:          0  MISS:          0\
cpu0_STLB PREFETCH  REQUESTED:          0  ISSUED:          0  USEFUL:          0  USELESS:          0\
cpu0_STLB AVERAGE MISS LATENCY: 10.398 cycles\
cpu0_L1D TOTAL     ACCESS:    6845745  HIT:    4759053  MISS:    2086692\
cpu0_L1D LOAD      ACCESS:    5219657  HIT:    3145391  MISS:    2074266\
cpu0_L1D RFO       ACCESS:    1299007  HIT:    1287975  MISS:      11032\
cpu0_L1D PREFETCH  ACCESS:          0  HIT:          0  MISS:          0\
cpu0_L1D WRITEBACK ACCESS:          0  HIT:          0  MISS:          0\
cpu0_L1D TRANSLATION ACCESS:     327081  HIT:     325687  MISS:       1394\
cpu0_L1D PREFETCH  REQUESTED:          0  ISSUED:          0  USEFUL:          0  USELESS:          0\
cpu0_L1D AVERAGE MISS LATENCY: 165.803 cycles\
cpu0_L2C TOTAL     ACCESS:    2810080  HIT:     891516  MISS:    1918564\
cpu0_L2C LOAD      ACCESS:    2074266  HIT:     238743  MISS:    1835523\
cpu0_L2C RFO       ACCESS:      11032  HIT:         98  MISS:      10934\
cpu0_L2C PREFETCH  ACCESS:      74568  HIT:       2524  MISS:      72044\
cpu0_L2C WRITEBACK ACCESS:     648820  HIT:     648808  MISS:         12\
cpu0_L2C TRANSLATION ACCESS:       1394  HIT:       1343  MISS:         51\
cpu0_L2C PREFETCH  REQUESTED:      82743  ISSUED:      80985  USEFUL:      14661  USELESS:      59155\
cpu0_L2C AVERAGE MISS LATENCY: 177.916 cycles\
LLC TOTAL     ACCESS:    2554891  HIT:    1273580  MISS:    1281311\
LLC LOAD      ACCESS:    1834004  HIT:     625092  MISS:    1208912\
LLC RFO       ACCESS:      10934  HIT:        596  MISS:      10338\
LLC PREFETCH  ACCESS:      75825  HIT:      13878  MISS:      61947\
LLC WRITEBACK ACCESS:     634077  HIT:     634003  MISS:         74\
LLC TRANSLATION ACCESS:         51  HIT:         11  MISS:         40\
LLC PREFETCH  REQUESTED:          0  ISSUED:          0  USEFUL:          0  USELESS:          0\
LLC AVERAGE MISS LATENCY: 237.404 cycles\
\
DRAM Statistics\
 CHANNEL 0\
 RQ ROW_BUFFER_HIT:      78187  ROW_BUFFER_MISS:    1202363\
 DBUS AVG_CONGESTED_CYCLE:    3.95656\
 WQ ROW_BUFFER_HIT:       1142  ROW_BUFFER_MISS:     538857  FULL:          0\
\
\
CPU 0 Branch Prediction Accuracy: 81.1279% MPKI: 35.6282 Average ROB Occupancy at Mispredict: 22.7339\
Branch type MPKI\
BRANCH_DIRECT_JUMP: 0\
BRANCH_INDIRECT: 0\
BRANCH_CONDITIONAL: 35.6282\
BRANCH_DIRECT_CALL: 0\
BRANCH_INDIRECT_CALL: 0\
BRANCH_RETURN: 0\
}