{\rtf1\ansi\ansicpg1252\cocoartf2639
\cocoatextscaling0\cocoaplatform0{\fonttbl\f0\fnil\fcharset0 Menlo-Regular;}
{\colortbl;\red255\green255\blue255;\red0\green0\blue0;}
{\*\expandedcolortbl;;\csgray\c0;}
\paperw11900\paperh16840\margl1440\margr1440\vieww11520\viewh8400\viewkind0
\pard\tx560\tx1120\tx1680\tx2240\tx2800\tx3360\tx3920\tx4480\tx5040\tx5600\tx6160\tx6720\pardirnatural\partightenfactor0

\f0\fs22 \cf2 \CocoaLigature0 \
*** ChampSim Multicore Out-of-Order Simulator ***\
\
Warmup Instructions: 25000000\
Simulation Instructions: 25000000\
Number of CPUs: 1\
Off-chip DRAM Size: 4 GiB Channels: 1 Width: 64-bit Data Rate: 3200 MT/s\
\
VirtualMemory physical capacity: 8588881920 num_ppages: 2096895\
VirtualMemory page size: 4096 log2_page_size: 12\
\
CPU 0 runs /Users/avaneeshsai/Downloads/sssp-3.trace.gz\
CPU 0 Bimodal branch predictor\
Basic BTB sets: 1024 ways: 8 indirect buffer size: 4096 RAS size: 64\
cpu0_L2C stream prefetcher \
Heartbeat CPU 0 instructions: 10000002 cycles: 2980448 heartbeat IPC: 3.3552 cumulative IPC: 3.3552 (Simulation time: 0 hr 0 min 46 sec) \
Heartbeat CPU 0 instructions: 20000001 cycles: 6362395 heartbeat IPC: 2.95688 cumulative IPC: 3.14347 (Simulation time: 0 hr 1 min 45 sec) \
\
Warmup complete CPU 0 instructions: 25000004 cycles: 8126977 (Simulation time: 0 hr 2 min 12 sec) \
\
Heartbeat CPU 0 instructions: 30000002 cycles: 25670166 heartbeat IPC: 0.517926 cumulative IPC: 0.285011 (Simulation time: 0 hr 2 min 50 sec) \
Heartbeat CPU 0 instructions: 40000001 cycles: 62223495 heartbeat IPC: 0.273573 cumulative IPC: 0.277282 (Simulation time: 0 hr 4 min 0 sec) \
Heartbeat CPU 0 instructions: 50000002 cycles: 97391851 heartbeat IPC: 0.284347 cumulative IPC: 0.280065 (Simulation time: 0 hr 5 min 8 sec) \
Finished CPU 0 instructions: 25000000 cycles: 89264892 cumulative IPC: 0.280065 (Simulation time: 0 hr 5 min 8 sec) \
\
ChampSim completed all CPUs\
\
Region of Interest Statistics\
\
CPU 0 cumulative IPC: 0.280065 instructions: 25000000 cycles: 89264892\
cpu0_DTLB TOTAL     ACCESS:    6313086  HIT:    5875504  MISS:     437582\
cpu0_DTLB LOAD      ACCESS:    5887630  HIT:    5607482  MISS:     280148\
cpu0_DTLB RFO       ACCESS:     425456  HIT:     268022  MISS:     157434\
cpu0_DTLB PREFETCH  ACCESS:          0  HIT:          0  MISS:          0\
cpu0_DTLB WRITEBACK ACCESS:          0  HIT:          0  MISS:          0\
cpu0_DTLB TRANSLATION ACCESS:          0  HIT:          0  MISS:          0\
cpu0_DTLB PREFETCH  REQUESTED:          0  ISSUED:          0  USEFUL:          0  USELESS:          0\
cpu0_DTLB AVERAGE MISS LATENCY: 11.2382 cycles\
cpu0_ITLB TOTAL     ACCESS:    2383357  HIT:    2383357  MISS:          0\
cpu0_ITLB LOAD      ACCESS:    2383357  HIT:    2383357  MISS:          0\
cpu0_ITLB RFO       ACCESS:          0  HIT:          0  MISS:          0\
cpu0_ITLB PREFETCH  ACCESS:          0  HIT:          0  MISS:          0\
cpu0_ITLB WRITEBACK ACCESS:          0  HIT:          0  MISS:          0\
cpu0_ITLB TRANSLATION ACCESS:          0  HIT:          0  MISS:          0\
cpu0_ITLB PREFETCH  REQUESTED:          0  ISSUED:          0  USEFUL:          0  USELESS:          0\
cpu0_ITLB AVERAGE MISS LATENCY: nan cycles\
cpu0_L1I TOTAL     ACCESS:      10708  HIT:      10708  MISS:          0\
cpu0_L1I LOAD      ACCESS:      10708  HIT:      10708  MISS:          0\
cpu0_L1I RFO       ACCESS:          0  HIT:          0  MISS:          0\
cpu0_L1I PREFETCH  ACCESS:          0  HIT:          0  MISS:          0\
cpu0_L1I WRITEBACK ACCESS:          0  HIT:          0  MISS:          0\
cpu0_L1I TRANSLATION ACCESS:          0  HIT:          0  MISS:          0\
cpu0_L1I PREFETCH  REQUESTED:          0  ISSUED:          0  USEFUL:          0  USELESS:          0\
cpu0_L1I AVERAGE MISS LATENCY: nan cycles\
cpu0_STLB TOTAL     ACCESS:     437582  HIT:     432152  MISS:       5430\
cpu0_STLB LOAD      ACCESS:     280148  HIT:     275463  MISS:       4685\
cpu0_STLB RFO       ACCESS:     157434  HIT:     156689  MISS:        745\
cpu0_STLB PREFETCH  ACCESS:          0  HIT:          0  MISS:          0\
cpu0_STLB WRITEBACK ACCESS:          0  HIT:          0  MISS:          0\
cpu0_STLB TRANSLATION ACCESS:          0  HIT:          0  MISS:          0\
cpu0_STLB PREFETCH  REQUESTED:          0  ISSUED:          0  USEFUL:          0  USELESS:          0\
cpu0_STLB AVERAGE MISS LATENCY: 173.204 cycles\
cpu0_L1D TOTAL     ACCESS:    6194922  HIT:    4952732  MISS:    1242190\
cpu0_L1D LOAD      ACCESS:    5559231  HIT:    4433434  MISS:    1125797\
cpu0_L1D RFO       ACCESS:     630290  HIT:     515848  MISS:     114442\
cpu0_L1D PREFETCH  ACCESS:          0  HIT:          0  MISS:          0\
cpu0_L1D WRITEBACK ACCESS:          0  HIT:          0  MISS:          0\
cpu0_L1D TRANSLATION ACCESS:       5401  HIT:       3450  MISS:       1951\
cpu0_L1D PREFETCH  REQUESTED:          0  ISSUED:          0  USEFUL:          0  USELESS:          0\
cpu0_L1D AVERAGE MISS LATENCY: 125.222 cycles\
cpu0_L2C TOTAL     ACCESS:    1775590  HIT:     668879  MISS:    1106711\
cpu0_L2C LOAD      ACCESS:    1125789  HIT:     231787  MISS:     894002\
cpu0_L2C RFO       ACCESS:     114435  HIT:      77759  MISS:      36676\
cpu0_L2C PREFETCH  ACCESS:     185343  HIT:      10814  MISS:     174529\
cpu0_L2C WRITEBACK ACCESS:     348072  HIT:     347032  MISS:       1040\
cpu0_L2C TRANSLATION ACCESS:       1951  HIT:       1487  MISS:        464\
cpu0_L2C PREFETCH  REQUESTED:     213614  ISSUED:     208304  USEFUL:      52246  USELESS:     125994\
cpu0_L2C AVERAGE MISS LATENCY: 164.134 cycles\
LLC TOTAL     ACCESS:    1349294  HIT:     632766  MISS:     716528\
LLC LOAD      ACCESS:     890307  HIT:     358562  MISS:     531745\
LLC RFO       ACCESS:      36676  HIT:      10730  MISS:      25946\
LLC PREFETCH  ACCESS:     186492  HIT:      29560  MISS:     156932\
LLC WRITEBACK ACCESS:     235355  HIT:     233639  MISS:       1716\
LLC TRANSLATION ACCESS:        464  HIT:        275  MISS:        189\
LLC PREFETCH  REQUESTED:          0  ISSUED:          0  USEFUL:          0  USELESS:          0\
LLC AVERAGE MISS LATENCY: 232.078 cycles\
\
DRAM Statistics\
 CHANNEL 0\
 RQ ROW_BUFFER_HIT:     122816  ROW_BUFFER_MISS:     591622\
 DBUS AVG_CONGESTED_CYCLE:    3.94346\
 WQ ROW_BUFFER_HIT:      40685  ROW_BUFFER_MISS:     167362  FULL:          0\
\
\
CPU 0 Branch Prediction Accuracy: 91.1986% MPKI: 12.9566 Average ROB Occupancy at Mispredict: 52.2157\
Branch type MPKI\
BRANCH_DIRECT_JUMP: 0\
BRANCH_INDIRECT: 0\
BRANCH_CONDITIONAL: 12.9566\
BRANCH_DIRECT_CALL: 0\
BRANCH_INDIRECT_CALL: 0\
BRANCH_RETURN: 0}