
*** ChampSim Multicore Out-of-Order Simulator ***

Warmup Instructions: 25000000
Simulation Instructions: 25000000
Number of CPUs: 1
Off-chip DRAM Size: 4 GiB Channels: 1 Width: 64-bit Data Rate: 3200 MT/s

VirtualMemory physical capacity: 8588881920 num_ppages: 2096895
VirtualMemory page size: 4096 log2_page_size: 12

CPU 0 runs /home/atharva/IITB/CS_683/PA2/602.gcc_s-1850B.champsimtrace.xz
CPU 0 Bimodal branch predictor
Basic BTB sets: 1024 ways: 8 indirect buffer size: 4096 RAS size: 64
cpu0_L2C stream prefetcher 
Heartbeat CPU 0 instructions: 10000003 cycles: 2500076 heartbeat IPC: 3.99988 cumulative IPC: 3.99988 (Simulation time: 0 hr 0 min 20 sec) 
Heartbeat CPU 0 instructions: 20000003 cycles: 5000076 heartbeat IPC: 4 cumulative IPC: 3.99994 (Simulation time: 0 hr 0 min 42 sec) 

Warmup complete CPU 0 instructions: 25000003 cycles: 6250076 (Simulation time: 0 hr 0 min 54 sec) 

Heartbeat CPU 0 instructions: 30000000 cycles: 19297056 heartbeat IPC: 0.699448 cumulative IPC: 0.38323 (Simulation time: 0 hr 1 min 16 sec) 
Heartbeat CPU 0 instructions: 40000002 cycles: 45487797 heartbeat IPC: 0.381814 cumulative IPC: 0.382285 (Simulation time: 0 hr 2 min 1 sec) 
Heartbeat CPU 0 instructions: 50000003 cycles: 71737327 heartbeat IPC: 0.380959 cumulative IPC: 0.381754 (Simulation time: 0 hr 2 min 43 sec) 
Finished CPU 0 instructions: 25000000 cycles: 65487251 cumulative IPC: 0.381754 (Simulation time: 0 hr 2 min 43 sec) 

ChampSim completed all CPUs

Region of Interest Statistics

CPU 0 cumulative IPC: 0.381754 instructions: 25000000 cycles: 65487251
cpu0_DTLB TOTAL     ACCESS:    4748346  HIT:    4740220  MISS:       8126
cpu0_DTLB LOAD      ACCESS:    3938756  HIT:    3930633  MISS:       8123
cpu0_DTLB RFO       ACCESS:     809590  HIT:     809587  MISS:          3
cpu0_DTLB PREFETCH  ACCESS:          0  HIT:          0  MISS:          0
cpu0_DTLB WRITEBACK ACCESS:          0  HIT:          0  MISS:          0
cpu0_DTLB TRANSLATION ACCESS:          0  HIT:          0  MISS:          0
cpu0_DTLB PREFETCH  REQUESTED:          0  ISSUED:          0  USEFUL:          0  USELESS:          0
cpu0_DTLB AVERAGE MISS LATENCY: 208.326 cycles
cpu0_ITLB TOTAL     ACCESS:    2857034  HIT:    2857034  MISS:          0
cpu0_ITLB LOAD      ACCESS:    2857034  HIT:    2857034  MISS:          0
cpu0_ITLB RFO       ACCESS:          0  HIT:          0  MISS:          0
cpu0_ITLB PREFETCH  ACCESS:          0  HIT:          0  MISS:          0
cpu0_ITLB WRITEBACK ACCESS:          0  HIT:          0  MISS:          0
cpu0_ITLB TRANSLATION ACCESS:          0  HIT:          0  MISS:          0
cpu0_ITLB PREFETCH  REQUESTED:          0  ISSUED:          0  USEFUL:          0  USELESS:          0
cpu0_ITLB AVERAGE MISS LATENCY: -nan cycles
cpu0_STLB TOTAL     ACCESS:       8126  HIT:        392  MISS:       7734
cpu0_STLB LOAD      ACCESS:       8123  HIT:        392  MISS:       7731
cpu0_STLB RFO       ACCESS:          3  HIT:          0  MISS:          3
cpu0_STLB PREFETCH  ACCESS:          0  HIT:          0  MISS:          0
cpu0_STLB WRITEBACK ACCESS:          0  HIT:          0  MISS:          0
cpu0_STLB TRANSLATION ACCESS:          0  HIT:          0  MISS:          0
cpu0_STLB PREFETCH  REQUESTED:          0  ISSUED:          0  USEFUL:          0  USELESS:          0
cpu0_STLB AVERAGE MISS LATENCY: 209.429 cycles
cpu0_L1D TOTAL     ACCESS:    5546345  HIT:    4943647  MISS:     602698
cpu0_L1D LOAD      ACCESS:    3380990  HIT:    2779209  MISS:     601781
cpu0_L1D RFO       ACCESS:    2157621  HIT:    2157449  MISS:        172
cpu0_L1D PREFETCH  ACCESS:          0  HIT:          0  MISS:          0
cpu0_L1D WRITEBACK ACCESS:          0  HIT:          0  MISS:          0
cpu0_L1D TRANSLATION ACCESS:       7734  HIT:       6989  MISS:        745
cpu0_L1D PREFETCH  REQUESTED:          0  ISSUED:          0  USEFUL:          0  USELESS:          0
cpu0_L1D AVERAGE MISS LATENCY: 65.1663 cycles
cpu0_L2C TOTAL     ACCESS:     800057  HIT:     310388  MISS:     489669
cpu0_L2C LOAD      ACCESS:     601781  HIT:     307846  MISS:     293935
cpu0_L2C RFO       ACCESS:        172  HIT:          0  MISS:        172
cpu0_L2C PREFETCH  ACCESS:     195775  HIT:        383  MISS:     195392
cpu0_L2C WRITEBACK ACCESS:       1584  HIT:       1584  MISS:          0
cpu0_L2C TRANSLATION ACCESS:        745  HIT:        575  MISS:        170
cpu0_L2C PREFETCH  REQUESTED:     195775  ISSUED:     195775  USEFUL:     150886  USELESS:      44471
cpu0_L2C AVERAGE MISS LATENCY: 108.5 cycles
LLC TOTAL     ACCESS:     490292  HIT:       1298  MISS:     488994
LLC LOAD      ACCESS:     293935  HIT:        560  MISS:     293375
LLC RFO       ACCESS:        172  HIT:          0  MISS:        172
LLC PREFETCH  ACCESS:     195392  HIT:         24  MISS:     195368
LLC WRITEBACK ACCESS:        623  HIT:        623  MISS:          0
LLC TRANSLATION ACCESS:        170  HIT:         91  MISS:         79
LLC PREFETCH  REQUESTED:          0  ISSUED:          0  USEFUL:          0  USELESS:          0
LLC AVERAGE MISS LATENCY: 87.6212 cycles

DRAM Statistics
 CHANNEL 0
 RQ ROW_BUFFER_HIT:     404890  ROW_BUFFER_MISS:      84104
 DBUS AVG_CONGESTED_CYCLE:     3.9908
 WQ ROW_BUFFER_HIT:        311  ROW_BUFFER_MISS:        307  FULL:          0


CPU 0 Branch Prediction Accuracy: 92.3646% MPKI: 19.576 Average ROB Occupancy at Mispredict: 33.4686
Branch type MPKI
BRANCH_DIRECT_JUMP: 0
BRANCH_INDIRECT: 0
BRANCH_CONDITIONAL: 19.576
BRANCH_DIRECT_CALL: 0
BRANCH_INDIRECT_CALL: 0
BRANCH_RETURN: 0

