
*** ChampSim Multicore Out-of-Order Simulator ***

Warmup Instructions: 25000000
Simulation Instructions: 25000000
Number of CPUs: 1
Off-chip DRAM Size: 4 GiB Channels: 1 Width: 64-bit Data Rate: 3200 MT/s

VirtualMemory physical capacity: 8588881920 num_ppages: 2096895
VirtualMemory page size: 4096 log2_page_size: 12

CPU 0 runs /home/atharva/IITB/CS_683/PA2/bc-0.trace.gz
CPU 0 Bimodal branch predictor
Basic BTB sets: 1024 ways: 8 indirect buffer size: 4096 RAS size: 64
cpu0_L2C stream prefetcher 
Heartbeat CPU 0 instructions: 10000002 cycles: 3203428 heartbeat IPC: 3.12166 cumulative IPC: 3.12166 (Simulation time: 0 hr 0 min 36 sec) 
Heartbeat CPU 0 instructions: 20000001 cycles: 5712253 heartbeat IPC: 3.98593 cumulative IPC: 3.50125 (Simulation time: 0 hr 1 min 1 sec) 

Warmup complete CPU 0 instructions: 25000001 cycles: 6963686 (Simulation time: 0 hr 1 min 13 sec) 

Heartbeat CPU 0 instructions: 30000001 cycles: 42988182 heartbeat IPC: 0.26827 cumulative IPC: 0.138794 (Simulation time: 0 hr 2 min 2 sec) 
Heartbeat CPU 0 instructions: 40000002 cycles: 116551841 heartbeat IPC: 0.135937 cumulative IPC: 0.136876 (Simulation time: 0 hr 3 min 32 sec) 
Heartbeat CPU 0 instructions: 50000002 cycles: 190053184 heartbeat IPC: 0.136052 cumulative IPC: 0.136545 (Simulation time: 0 hr 4 min 52 sec) 
Finished CPU 0 instructions: 25000001 cycles: 183089498 cumulative IPC: 0.136545 (Simulation time: 0 hr 4 min 52 sec) 

ChampSim completed all CPUs

Region of Interest Statistics

CPU 0 cumulative IPC: 0.136545 instructions: 25000001 cycles: 183089498
cpu0_DTLB TOTAL     ACCESS:    5781704  HIT:    5047922  MISS:     733782
cpu0_DTLB LOAD      ACCESS:    4553743  HIT:    4075749  MISS:     477994
cpu0_DTLB RFO       ACCESS:    1227961  HIT:     972173  MISS:     255788
cpu0_DTLB PREFETCH  ACCESS:          0  HIT:          0  MISS:          0
cpu0_DTLB WRITEBACK ACCESS:          0  HIT:          0  MISS:          0
cpu0_DTLB TRANSLATION ACCESS:          0  HIT:          0  MISS:          0
cpu0_DTLB PREFETCH  REQUESTED:          0  ISSUED:          0  USEFUL:          0  USELESS:          0
cpu0_DTLB AVERAGE MISS LATENCY: 13.8395 cycles
cpu0_ITLB TOTAL     ACCESS:    3107161  HIT:    3107161  MISS:          0
cpu0_ITLB LOAD      ACCESS:    3107161  HIT:    3107161  MISS:          0
cpu0_ITLB RFO       ACCESS:          0  HIT:          0  MISS:          0
cpu0_ITLB PREFETCH  ACCESS:          0  HIT:          0  MISS:          0
cpu0_ITLB WRITEBACK ACCESS:          0  HIT:          0  MISS:          0
cpu0_ITLB TRANSLATION ACCESS:          0  HIT:          0  MISS:          0
cpu0_ITLB PREFETCH  REQUESTED:          0  ISSUED:          0  USEFUL:          0  USELESS:          0
cpu0_ITLB AVERAGE MISS LATENCY: -nan cycles
cpu0_L1I TOTAL     ACCESS:         86  HIT:         86  MISS:          0
cpu0_L1I LOAD      ACCESS:         86  HIT:         86  MISS:          0
cpu0_L1I RFO       ACCESS:          0  HIT:          0  MISS:          0
cpu0_L1I PREFETCH  ACCESS:          0  HIT:          0  MISS:          0
cpu0_L1I WRITEBACK ACCESS:          0  HIT:          0  MISS:          0
cpu0_L1I TRANSLATION ACCESS:          0  HIT:          0  MISS:          0
cpu0_L1I PREFETCH  REQUESTED:          0  ISSUED:          0  USEFUL:          0  USELESS:          0
cpu0_L1I AVERAGE MISS LATENCY: -nan cycles
cpu0_STLB TOTAL     ACCESS:     733782  HIT:     397124  MISS:     336658
cpu0_STLB LOAD      ACCESS:     477994  HIT:     310200  MISS:     167794
cpu0_STLB RFO       ACCESS:     255788  HIT:      86924  MISS:     168864
cpu0_STLB PREFETCH  ACCESS:          0  HIT:          0  MISS:          0
cpu0_STLB WRITEBACK ACCESS:          0  HIT:          0  MISS:          0
cpu0_STLB TRANSLATION ACCESS:          0  HIT:          0  MISS:          0
cpu0_STLB PREFETCH  REQUESTED:          0  ISSUED:          0  USEFUL:          0  USELESS:          0
cpu0_STLB AVERAGE MISS LATENCY: 10.3631 cycles
cpu0_L1D TOTAL     ACCESS:    6845936  HIT:    4759235  MISS:    2086701
cpu0_L1D LOAD      ACCESS:    5219926  HIT:    3145651  MISS:    2074275
cpu0_L1D RFO       ACCESS:    1298928  HIT:    1287896  MISS:      11032
cpu0_L1D PREFETCH  ACCESS:          0  HIT:          0  MISS:          0
cpu0_L1D WRITEBACK ACCESS:          0  HIT:          0  MISS:          0
cpu0_L1D TRANSLATION ACCESS:     327082  HIT:     325688  MISS:       1394
cpu0_L1D PREFETCH  REQUESTED:          0  ISSUED:          0  USEFUL:          0  USELESS:          0
cpu0_L1D AVERAGE MISS LATENCY: 165.304 cycles
cpu0_L2C TOTAL     ACCESS:    2791366  HIT:     887773  MISS:    1903593
cpu0_L2C LOAD      ACCESS:    2074275  HIT:     236463  MISS:    1837812
cpu0_L2C RFO       ACCESS:      11032  HIT:        127  MISS:      10905
cpu0_L2C PREFETCH  ACCESS:      55843  HIT:       1025  MISS:      54818
cpu0_L2C WRITEBACK ACCESS:     648822  HIT:     648808  MISS:         14
cpu0_L2C TRANSLATION ACCESS:       1394  HIT:       1350  MISS:         44
cpu0_L2C PREFETCH  REQUESTED:      61737  ISSUED:      61737  USEFUL:      10423  USELESS:      46199
cpu0_L2C AVERAGE MISS LATENCY: 176.061 cycles
LLC TOTAL     ACCESS:    2539523  HIT:    1275144  MISS:    1264379
LLC LOAD      ACCESS:    1836222  HIT:     629699  MISS:    1206523
LLC RFO       ACCESS:      10905  HIT:        507  MISS:      10398
LLC PREFETCH  ACCESS:      58396  HIT:      11056  MISS:      47340
LLC WRITEBACK ACCESS:     633956  HIT:     633871  MISS:         85
LLC TRANSLATION ACCESS:         44  HIT:         11  MISS:         33
LLC PREFETCH  REQUESTED:          0  ISSUED:          0  USEFUL:          0  USELESS:          0
LLC AVERAGE MISS LATENCY: 235.626 cycles

DRAM Statistics
 CHANNEL 0
 RQ ROW_BUFFER_HIT:      69608  ROW_BUFFER_MISS:    1194072
 DBUS AVG_CONGESTED_CYCLE:    3.95645
 WQ ROW_BUFFER_HIT:       1102  ROW_BUFFER_MISS:     537933  FULL:          0


CPU 0 Branch Prediction Accuracy: 81.1279% MPKI: 35.6282 Average ROB Occupancy at Mispredict: 22.7183
Branch type MPKI
BRANCH_DIRECT_JUMP: 0
BRANCH_INDIRECT: 0
BRANCH_CONDITIONAL: 35.6282
BRANCH_DIRECT_CALL: 0
BRANCH_INDIRECT_CALL: 0
BRANCH_RETURN: 0

