
*** ChampSim Multicore Out-of-Order Simulator ***

Warmup Instructions: 25000000
Simulation Instructions: 25000000
Number of CPUs: 1
Off-chip DRAM Size: 4 GiB Channels: 1 Width: 64-bit Data Rate: 3200 MT/s

VirtualMemory physical capacity: 8588881920 num_ppages: 2096895
VirtualMemory page size: 4096 log2_page_size: 12

CPU 0 runs /home/atharva/IITB/CS_683/PA2/bc-0.trace.gz
CPU 0 Bimodal branch predictor
Basic BTB sets: 1024 ways: 8 indirect buffer size: 4096 RAS size: 64
cpu0_L2C stream prefetcher 
Heartbeat CPU 0 instructions: 10000002 cycles: 3203432 heartbeat IPC: 3.12165 cumulative IPC: 3.12165 (Simulation time: 0 hr 0 min 33 sec) 
Heartbeat CPU 0 instructions: 20000001 cycles: 5712258 heartbeat IPC: 3.98593 cumulative IPC: 3.50124 (Simulation time: 0 hr 0 min 57 sec) 

Warmup complete CPU 0 instructions: 25000003 cycles: 6963688 (Simulation time: 0 hr 1 min 8 sec) 

Heartbeat CPU 0 instructions: 30000001 cycles: 43397123 heartbeat IPC: 0.265359 cumulative IPC: 0.137237 (Simulation time: 0 hr 1 min 55 sec) 
Heartbeat CPU 0 instructions: 40000002 cycles: 117839931 heartbeat IPC: 0.134331 cumulative IPC: 0.135286 (Simulation time: 0 hr 3 min 27 sec) 
Heartbeat CPU 0 instructions: 50000002 cycles: 192286319 heartbeat IPC: 0.134325 cumulative IPC: 0.1349 (Simulation time: 0 hr 4 min 49 sec) 
Finished CPU 0 instructions: 25000004 cycles: 185322632 cumulative IPC: 0.1349 (Simulation time: 0 hr 4 min 49 sec) 

ChampSim completed all CPUs

Region of Interest Statistics

CPU 0 cumulative IPC: 0.1349 instructions: 25000004 cycles: 185322632
cpu0_DTLB TOTAL     ACCESS:    5781380  HIT:    5047598  MISS:     733782
cpu0_DTLB LOAD      ACCESS:    4553414  HIT:    4075426  MISS:     477988
cpu0_DTLB RFO       ACCESS:    1227966  HIT:     972172  MISS:     255794
cpu0_DTLB PREFETCH  ACCESS:          0  HIT:          0  MISS:          0
cpu0_DTLB WRITEBACK ACCESS:          0  HIT:          0  MISS:          0
cpu0_DTLB TRANSLATION ACCESS:          0  HIT:          0  MISS:          0
cpu0_DTLB PREFETCH  REQUESTED:          0  ISSUED:          0  USEFUL:          0  USELESS:          0
cpu0_DTLB AVERAGE MISS LATENCY: 13.8147 cycles
cpu0_ITLB TOTAL     ACCESS:    3107161  HIT:    3107161  MISS:          0
cpu0_ITLB LOAD      ACCESS:    3107161  HIT:    3107161  MISS:          0
cpu0_ITLB RFO       ACCESS:          0  HIT:          0  MISS:          0
cpu0_ITLB PREFETCH  ACCESS:          0  HIT:          0  MISS:          0
cpu0_ITLB WRITEBACK ACCESS:          0  HIT:          0  MISS:          0
cpu0_ITLB TRANSLATION ACCESS:          0  HIT:          0  MISS:          0
cpu0_ITLB PREFETCH  REQUESTED:          0  ISSUED:          0  USEFUL:          0  USELESS:          0
cpu0_ITLB AVERAGE MISS LATENCY: -nan cycles
cpu0_L1I TOTAL     ACCESS:         86  HIT:         86  MISS:          0
cpu0_L1I LOAD      ACCESS:         86  HIT:         86  MISS:          0
cpu0_L1I RFO       ACCESS:          0  HIT:          0  MISS:          0
cpu0_L1I PREFETCH  ACCESS:          0  HIT:          0  MISS:          0
cpu0_L1I WRITEBACK ACCESS:          0  HIT:          0  MISS:          0
cpu0_L1I TRANSLATION ACCESS:          0  HIT:          0  MISS:          0
cpu0_L1I PREFETCH  REQUESTED:          0  ISSUED:          0  USEFUL:          0  USELESS:          0
cpu0_L1I AVERAGE MISS LATENCY: -nan cycles
cpu0_STLB TOTAL     ACCESS:     733782  HIT:     397124  MISS:     336658
cpu0_STLB LOAD      ACCESS:     477988  HIT:     310199  MISS:     167789
cpu0_STLB RFO       ACCESS:     255794  HIT:      86925  MISS:     168869
cpu0_STLB PREFETCH  ACCESS:          0  HIT:          0  MISS:          0
cpu0_STLB WRITEBACK ACCESS:          0  HIT:          0  MISS:          0
cpu0_STLB TRANSLATION ACCESS:          0  HIT:          0  MISS:          0
cpu0_STLB PREFETCH  REQUESTED:          0  ISSUED:          0  USEFUL:          0  USELESS:          0
cpu0_STLB AVERAGE MISS LATENCY: 10.3091 cycles
cpu0_L1D TOTAL     ACCESS:    6844907  HIT:    4758210  MISS:    2086697
cpu0_L1D LOAD      ACCESS:    5218796  HIT:    3144525  MISS:    2074271
cpu0_L1D RFO       ACCESS:    1299026  HIT:    1287994  MISS:      11032
cpu0_L1D PREFETCH  ACCESS:          0  HIT:          0  MISS:          0
cpu0_L1D WRITEBACK ACCESS:          0  HIT:          0  MISS:          0
cpu0_L1D TRANSLATION ACCESS:     327085  HIT:     325691  MISS:       1394
cpu0_L1D PREFETCH  REQUESTED:          0  ISSUED:          0  USEFUL:          0  USELESS:          0
cpu0_L1D AVERAGE MISS LATENCY: 169.311 cycles
cpu0_L2C TOTAL     ACCESS:    2876506  HIT:     887910  MISS:    1988596
cpu0_L2C LOAD      ACCESS:    2074271  HIT:     235437  MISS:    1838834
cpu0_L2C RFO       ACCESS:      11032  HIT:        110  MISS:      10922
cpu0_L2C PREFETCH  ACCESS:     140989  HIT:       2207  MISS:     138782
cpu0_L2C WRITEBACK ACCESS:     648820  HIT:     648807  MISS:         13
cpu0_L2C TRANSLATION ACCESS:       1394  HIT:       1349  MISS:         45
cpu0_L2C PREFETCH  REQUESTED:     146542  ISSUED:     146542  USEFUL:      16052  USELESS:     124385
cpu0_L2C AVERAGE MISS LATENCY: 184.642 cycles
LLC TOTAL     ACCESS:    2626469  HIT:    1271645  MISS:    1354824
LLC LOAD      ACCESS:    1837732  HIT:     611940  MISS:    1225792
LLC RFO       ACCESS:      10922  HIT:        496  MISS:      10426
LLC PREFETCH  ACCESS:     143292  HIT:      24798  MISS:     118494
LLC WRITEBACK ACCESS:     634478  HIT:     634399  MISS:         79
LLC TRANSLATION ACCESS:         45  HIT:         12  MISS:         33
LLC PREFETCH  REQUESTED:          0  ISSUED:          0  USEFUL:          0  USELESS:          0
LLC AVERAGE MISS LATENCY: 243.806 cycles

DRAM Statistics
 CHANNEL 0
 RQ ROW_BUFFER_HIT:      98966  ROW_BUFFER_MISS:    1255142
 DBUS AVG_CONGESTED_CYCLE:    3.95475
 WQ ROW_BUFFER_HIT:       1081  ROW_BUFFER_MISS:     543731  FULL:          0


CPU 0 Branch Prediction Accuracy: 81.1279% MPKI: 35.6282 Average ROB Occupancy at Mispredict: 22.8079
Branch type MPKI
BRANCH_DIRECT_JUMP: 0
BRANCH_INDIRECT: 0
BRANCH_CONDITIONAL: 35.6282
BRANCH_DIRECT_CALL: 0
BRANCH_INDIRECT_CALL: 0
BRANCH_RETURN: 0

