
*** ChampSim Multicore Out-of-Order Simulator ***

Warmup Instructions: 25000000
Simulation Instructions: 25000000
Number of CPUs: 1
Off-chip DRAM Size: 4 GiB Channels: 1 Width: 64-bit Data Rate: 3200 MT/s

VirtualMemory physical capacity: 8588881920 num_ppages: 2096895
VirtualMemory page size: 4096 log2_page_size: 12

CPU 0 runs /home/atharva/IITB/CS_683/PA2/bc-0.trace.gz
CPU 0 Bimodal branch predictor
Basic BTB sets: 1024 ways: 8 indirect buffer size: 4096 RAS size: 64
cpu0_L2C stream prefetcher 
Heartbeat CPU 0 instructions: 10000002 cycles: 3203419 heartbeat IPC: 3.12167 cumulative IPC: 3.12167 (Simulation time: 0 hr 0 min 35 sec) 
Heartbeat CPU 0 instructions: 20000003 cycles: 5712246 heartbeat IPC: 3.98593 cumulative IPC: 3.50125 (Simulation time: 0 hr 0 min 59 sec) 

Warmup complete CPU 0 instructions: 25000001 cycles: 6963676 (Simulation time: 0 hr 1 min 11 sec) 

Heartbeat CPU 0 instructions: 30000001 cycles: 43243151 heartbeat IPC: 0.266447 cumulative IPC: 0.137819 (Simulation time: 0 hr 1 min 58 sec) 
Heartbeat CPU 0 instructions: 40000002 cycles: 117399661 heartbeat IPC: 0.13485 cumulative IPC: 0.135825 (Simulation time: 0 hr 3 min 30 sec) 
Heartbeat CPU 0 instructions: 50000002 cycles: 191574891 heartbeat IPC: 0.134816 cumulative IPC: 0.13542 (Simulation time: 0 hr 4 min 57 sec) 
Finished CPU 0 instructions: 25000001 cycles: 184611215 cumulative IPC: 0.13542 (Simulation time: 0 hr 4 min 57 sec) 

ChampSim completed all CPUs

Region of Interest Statistics

CPU 0 cumulative IPC: 0.13542 instructions: 25000001 cycles: 184611215
cpu0_DTLB TOTAL     ACCESS:    5781472  HIT:    5047690  MISS:     733782
cpu0_DTLB LOAD      ACCESS:    4553556  HIT:    4075567  MISS:     477989
cpu0_DTLB RFO       ACCESS:    1227916  HIT:     972123  MISS:     255793
cpu0_DTLB PREFETCH  ACCESS:          0  HIT:          0  MISS:          0
cpu0_DTLB WRITEBACK ACCESS:          0  HIT:          0  MISS:          0
cpu0_DTLB TRANSLATION ACCESS:          0  HIT:          0  MISS:          0
cpu0_DTLB PREFETCH  REQUESTED:          0  ISSUED:          0  USEFUL:          0  USELESS:          0
cpu0_DTLB AVERAGE MISS LATENCY: 13.8344 cycles
cpu0_ITLB TOTAL     ACCESS:    3107160  HIT:    3107160  MISS:          0
cpu0_ITLB LOAD      ACCESS:    3107160  HIT:    3107160  MISS:          0
cpu0_ITLB RFO       ACCESS:          0  HIT:          0  MISS:          0
cpu0_ITLB PREFETCH  ACCESS:          0  HIT:          0  MISS:          0
cpu0_ITLB WRITEBACK ACCESS:          0  HIT:          0  MISS:          0
cpu0_ITLB TRANSLATION ACCESS:          0  HIT:          0  MISS:          0
cpu0_ITLB PREFETCH  REQUESTED:          0  ISSUED:          0  USEFUL:          0  USELESS:          0
cpu0_ITLB AVERAGE MISS LATENCY: -nan cycles
cpu0_L1I TOTAL     ACCESS:         86  HIT:         86  MISS:          0
cpu0_L1I LOAD      ACCESS:         86  HIT:         86  MISS:          0
cpu0_L1I RFO       ACCESS:          0  HIT:          0  MISS:          0
cpu0_L1I PREFETCH  ACCESS:          0  HIT:          0  MISS:          0
cpu0_L1I WRITEBACK ACCESS:          0  HIT:          0  MISS:          0
cpu0_L1I TRANSLATION ACCESS:          0  HIT:          0  MISS:          0
cpu0_L1I PREFETCH  REQUESTED:          0  ISSUED:          0  USEFUL:          0  USELESS:          0
cpu0_L1I AVERAGE MISS LATENCY: -nan cycles
cpu0_STLB TOTAL     ACCESS:     733782  HIT:     397124  MISS:     336658
cpu0_STLB LOAD      ACCESS:     477989  HIT:     310199  MISS:     167790
cpu0_STLB RFO       ACCESS:     255793  HIT:      86925  MISS:     168868
cpu0_STLB PREFETCH  ACCESS:          0  HIT:          0  MISS:          0
cpu0_STLB WRITEBACK ACCESS:          0  HIT:          0  MISS:          0
cpu0_STLB TRANSLATION ACCESS:          0  HIT:          0  MISS:          0
cpu0_STLB PREFETCH  REQUESTED:          0  ISSUED:          0  USEFUL:          0  USELESS:          0
cpu0_STLB AVERAGE MISS LATENCY: 10.352 cycles
cpu0_L1D TOTAL     ACCESS:    6845742  HIT:    4759043  MISS:    2086699
cpu0_L1D LOAD      ACCESS:    5219675  HIT:    3145402  MISS:    2074273
cpu0_L1D RFO       ACCESS:    1298986  HIT:    1287954  MISS:      11032
cpu0_L1D PREFETCH  ACCESS:          0  HIT:          0  MISS:          0
cpu0_L1D WRITEBACK ACCESS:          0  HIT:          0  MISS:          0
cpu0_L1D TRANSLATION ACCESS:     327081  HIT:     325687  MISS:       1394
cpu0_L1D PREFETCH  REQUESTED:          0  ISSUED:          0  USEFUL:          0  USELESS:          0
cpu0_L1D AVERAGE MISS LATENCY: 167.822 cycles
cpu0_L2C TOTAL     ACCESS:    2832956  HIT:     886204  MISS:    1946752
cpu0_L2C LOAD      ACCESS:    2074273  HIT:     234346  MISS:    1839927
cpu0_L2C RFO       ACCESS:      11032  HIT:        117  MISS:      10915
cpu0_L2C PREFETCH  ACCESS:      97435  HIT:       1582  MISS:      95853
cpu0_L2C WRITEBACK ACCESS:     648822  HIT:     648809  MISS:         13
cpu0_L2C TRANSLATION ACCESS:       1394  HIT:       1350  MISS:         44
cpu0_L2C PREFETCH  REQUESTED:     102218  ISSUED:     102218  USEFUL:      11503  USELESS:      85541
cpu0_L2C AVERAGE MISS LATENCY: 180.682 cycles
LLC TOTAL     ACCESS:    2584088  HIT:    1272381  MISS:    1311707
LLC LOAD      ACCESS:    1839151  HIT:     620556  MISS:    1218595
LLC RFO       ACCESS:      10915  HIT:        503  MISS:      10412
LLC PREFETCH  ACCESS:      99735  HIT:      17148  MISS:      82587
LLC WRITEBACK ACCESS:     634243  HIT:     634163  MISS:         80
LLC TRANSLATION ACCESS:         44  HIT:         11  MISS:         33
LLC PREFETCH  REQUESTED:          0  ISSUED:          0  USEFUL:          0  USELESS:          0
LLC AVERAGE MISS LATENCY: 240.25 cycles

DRAM Statistics
 CHANNEL 0
 RQ ROW_BUFFER_HIT:      82734  ROW_BUFFER_MISS:    1228281
 DBUS AVG_CONGESTED_CYCLE:    3.95567
 WQ ROW_BUFFER_HIT:       1123  ROW_BUFFER_MISS:     540898  FULL:          0


CPU 0 Branch Prediction Accuracy: 81.1279% MPKI: 35.6282 Average ROB Occupancy at Mispredict: 22.7215
Branch type MPKI
BRANCH_DIRECT_JUMP: 0
BRANCH_INDIRECT: 0
BRANCH_CONDITIONAL: 35.6282
BRANCH_DIRECT_CALL: 0
BRANCH_INDIRECT_CALL: 0
BRANCH_RETURN: 0

