
*** ChampSim Multicore Out-of-Order Simulator ***

Warmup Instructions: 25000000
Simulation Instructions: 25000000
Number of CPUs: 1
Off-chip DRAM Size: 4 GiB Channels: 1 Width: 64-bit Data Rate: 3200 MT/s

VirtualMemory physical capacity: 8588881920 num_ppages: 2096895
VirtualMemory page size: 4096 log2_page_size: 12

CPU 0 runs /home/atharva/IITB/CS_683/PA2/bc-0.trace.gz
CPU 0 Bimodal branch predictor
Basic BTB sets: 1024 ways: 8 indirect buffer size: 4096 RAS size: 64
cpu0_L2C stream prefetcher 
Heartbeat CPU 0 instructions: 10000002 cycles: 3203778 heartbeat IPC: 3.12132 cumulative IPC: 3.12132 (Simulation time: 0 hr 0 min 36 sec) 
Heartbeat CPU 0 instructions: 20000001 cycles: 5712611 heartbeat IPC: 3.98592 cumulative IPC: 3.50103 (Simulation time: 0 hr 1 min 0 sec) 

Warmup complete CPU 0 instructions: 25000003 cycles: 6964044 (Simulation time: 0 hr 1 min 12 sec) 

Heartbeat CPU 0 instructions: 30000001 cycles: 44126343 heartbeat IPC: 0.260324 cumulative IPC: 0.134545 (Simulation time: 0 hr 2 min 0 sec) 
Heartbeat CPU 0 instructions: 40000002 cycles: 120305596 heartbeat IPC: 0.131269 cumulative IPC: 0.132343 (Simulation time: 0 hr 3 min 35 sec) 
Heartbeat CPU 0 instructions: 50000002 cycles: 196641956 heartbeat IPC: 0.130999 cumulative IPC: 0.131802 (Simulation time: 0 hr 5 min 2 sec) 
Finished CPU 0 instructions: 25000004 cycles: 189677913 cumulative IPC: 0.131802 (Simulation time: 0 hr 5 min 2 sec) 

ChampSim completed all CPUs

Region of Interest Statistics

CPU 0 cumulative IPC: 0.131802 instructions: 25000004 cycles: 189677913
cpu0_DTLB TOTAL     ACCESS:    5782174  HIT:    5048392  MISS:     733782
cpu0_DTLB LOAD      ACCESS:    4554369  HIT:    4076387  MISS:     477982
cpu0_DTLB RFO       ACCESS:    1227805  HIT:     972005  MISS:     255800
cpu0_DTLB PREFETCH  ACCESS:          0  HIT:          0  MISS:          0
cpu0_DTLB WRITEBACK ACCESS:          0  HIT:          0  MISS:          0
cpu0_DTLB TRANSLATION ACCESS:          0  HIT:          0  MISS:          0
cpu0_DTLB PREFETCH  REQUESTED:          0  ISSUED:          0  USEFUL:          0  USELESS:          0
cpu0_DTLB AVERAGE MISS LATENCY: 13.9936 cycles
cpu0_ITLB TOTAL     ACCESS:    3107161  HIT:    3107161  MISS:          0
cpu0_ITLB LOAD      ACCESS:    3107161  HIT:    3107161  MISS:          0
cpu0_ITLB RFO       ACCESS:          0  HIT:          0  MISS:          0
cpu0_ITLB PREFETCH  ACCESS:          0  HIT:          0  MISS:          0
cpu0_ITLB WRITEBACK ACCESS:          0  HIT:          0  MISS:          0
cpu0_ITLB TRANSLATION ACCESS:          0  HIT:          0  MISS:          0
cpu0_ITLB PREFETCH  REQUESTED:          0  ISSUED:          0  USEFUL:          0  USELESS:          0
cpu0_ITLB AVERAGE MISS LATENCY: -nan cycles
cpu0_L1I TOTAL     ACCESS:         86  HIT:         86  MISS:          0
cpu0_L1I LOAD      ACCESS:         86  HIT:         86  MISS:          0
cpu0_L1I RFO       ACCESS:          0  HIT:          0  MISS:          0
cpu0_L1I PREFETCH  ACCESS:          0  HIT:          0  MISS:          0
cpu0_L1I WRITEBACK ACCESS:          0  HIT:          0  MISS:          0
cpu0_L1I TRANSLATION ACCESS:          0  HIT:          0  MISS:          0
cpu0_L1I PREFETCH  REQUESTED:          0  ISSUED:          0  USEFUL:          0  USELESS:          0
cpu0_L1I AVERAGE MISS LATENCY: -nan cycles
cpu0_STLB TOTAL     ACCESS:     733782  HIT:     397124  MISS:     336658
cpu0_STLB LOAD      ACCESS:     477982  HIT:     310196  MISS:     167786
cpu0_STLB RFO       ACCESS:     255800  HIT:      86928  MISS:     168872
cpu0_STLB PREFETCH  ACCESS:          0  HIT:          0  MISS:          0
cpu0_STLB WRITEBACK ACCESS:          0  HIT:          0  MISS:          0
cpu0_STLB TRANSLATION ACCESS:          0  HIT:          0  MISS:          0
cpu0_STLB PREFETCH  REQUESTED:          0  ISSUED:          0  USEFUL:          0  USELESS:          0
cpu0_STLB AVERAGE MISS LATENCY: 10.6989 cycles
cpu0_L1D TOTAL     ACCESS:    6847508  HIT:    4760809  MISS:    2086699
cpu0_L1D LOAD      ACCESS:    5221202  HIT:    3146929  MISS:    2074273
cpu0_L1D RFO       ACCESS:    1299216  HIT:    1288184  MISS:      11032
cpu0_L1D PREFETCH  ACCESS:          0  HIT:          0  MISS:          0
cpu0_L1D WRITEBACK ACCESS:          0  HIT:          0  MISS:          0
cpu0_L1D TRANSLATION ACCESS:     327090  HIT:     325696  MISS:       1394
cpu0_L1D PREFETCH  REQUESTED:          0  ISSUED:          0  USEFUL:          0  USELESS:          0
cpu0_L1D AVERAGE MISS LATENCY: 175.237 cycles
cpu0_L2C TOTAL     ACCESS:    2896011  HIT:     868627  MISS:    2027384
cpu0_L2C LOAD      ACCESS:    2074273  HIT:     217953  MISS:    1856320
cpu0_L2C RFO       ACCESS:      11032  HIT:        106  MISS:      10926
cpu0_L2C PREFETCH  ACCESS:     160490  HIT:        409  MISS:     160081
cpu0_L2C WRITEBACK ACCESS:     648822  HIT:     648809  MISS:         13
cpu0_L2C TRANSLATION ACCESS:       1394  HIT:       1350  MISS:         44
cpu0_L2C PREFETCH  REQUESTED:     164479  ISSUED:     164479  USEFUL:        406  USELESS:     160360
cpu0_L2C AVERAGE MISS LATENCY: 193.189 cycles
LLC TOTAL     ACCESS:    2665850  HIT:    1237327  MISS:    1428523
LLC LOAD      ACCESS:    1856320  HIT:     591896  MISS:    1264424
LLC RFO       ACCESS:      10926  HIT:        489  MISS:      10437
LLC PREFETCH  ACCESS:     163979  HIT:      10425  MISS:     153554
LLC WRITEBACK ACCESS:     634581  HIT:     634507  MISS:         74
LLC TRANSLATION ACCESS:         44  HIT:         10  MISS:         34
LLC PREFETCH  REQUESTED:          0  ISSUED:          0  USEFUL:          0  USELESS:          0
LLC AVERAGE MISS LATENCY: 248.226 cycles

DRAM Statistics
 CHANNEL 0
 RQ ROW_BUFFER_HIT:     119771  ROW_BUFFER_MISS:    1308032
 DBUS AVG_CONGESTED_CYCLE:    3.95328
 WQ ROW_BUFFER_HIT:        992  ROW_BUFFER_MISS:     547317  FULL:          0


CPU 0 Branch Prediction Accuracy: 81.1279% MPKI: 35.6282 Average ROB Occupancy at Mispredict: 22.3252
Branch type MPKI
BRANCH_DIRECT_JUMP: 0
BRANCH_INDIRECT: 0
BRANCH_CONDITIONAL: 35.6282
BRANCH_DIRECT_CALL: 0
BRANCH_INDIRECT_CALL: 0
BRANCH_RETURN: 0

