
*** ChampSim Multicore Out-of-Order Simulator ***

Warmup Instructions: 25000000
Simulation Instructions: 25000000
Number of CPUs: 1
Off-chip DRAM Size: 4 GiB Channels: 1 Width: 64-bit Data Rate: 3200 MT/s

VirtualMemory physical capacity: 8588881920 num_ppages: 2096895
VirtualMemory page size: 4096 log2_page_size: 12

CPU 0 runs /home/atharva/IITB/CS_683/PA2/sssp-3.trace.gz
CPU 0 Bimodal branch predictor
Basic BTB sets: 1024 ways: 8 indirect buffer size: 4096 RAS size: 64
cpu0_L2C stream prefetcher 
Heartbeat CPU 0 instructions: 10000002 cycles: 2980463 heartbeat IPC: 3.35518 cumulative IPC: 3.35518 (Simulation time: 0 hr 0 min 27 sec) 
Heartbeat CPU 0 instructions: 20000001 cycles: 6362406 heartbeat IPC: 2.95688 cumulative IPC: 3.14347 (Simulation time: 0 hr 1 min 2 sec) 

Warmup complete CPU 0 instructions: 25000004 cycles: 8126986 (Simulation time: 0 hr 1 min 19 sec) 

Heartbeat CPU 0 instructions: 30000002 cycles: 25711483 heartbeat IPC: 0.516821 cumulative IPC: 0.284341 (Simulation time: 0 hr 1 min 48 sec) 
Heartbeat CPU 0 instructions: 40000001 cycles: 62141041 heartbeat IPC: 0.274502 cumulative IPC: 0.277705 (Simulation time: 0 hr 2 min 47 sec) 
Heartbeat CPU 0 instructions: 50000002 cycles: 97039811 heartbeat IPC: 0.286543 cumulative IPC: 0.281174 (Simulation time: 0 hr 3 min 45 sec) 
Finished CPU 0 instructions: 25000000 cycles: 88912843 cumulative IPC: 0.281174 (Simulation time: 0 hr 3 min 45 sec) 

ChampSim completed all CPUs

Region of Interest Statistics

CPU 0 cumulative IPC: 0.281174 instructions: 25000000 cycles: 88912843
cpu0_DTLB TOTAL     ACCESS:    6312959  HIT:    5875378  MISS:     437581
cpu0_DTLB LOAD      ACCESS:    5887519  HIT:    5607379  MISS:     280140
cpu0_DTLB RFO       ACCESS:     425440  HIT:     267999  MISS:     157441
cpu0_DTLB PREFETCH  ACCESS:          0  HIT:          0  MISS:          0
cpu0_DTLB WRITEBACK ACCESS:          0  HIT:          0  MISS:          0
cpu0_DTLB TRANSLATION ACCESS:          0  HIT:          0  MISS:          0
cpu0_DTLB PREFETCH  REQUESTED:          0  ISSUED:          0  USEFUL:          0  USELESS:          0
cpu0_DTLB AVERAGE MISS LATENCY: 11.207 cycles
cpu0_ITLB TOTAL     ACCESS:    2383459  HIT:    2383459  MISS:          0
cpu0_ITLB LOAD      ACCESS:    2383459  HIT:    2383459  MISS:          0
cpu0_ITLB RFO       ACCESS:          0  HIT:          0  MISS:          0
cpu0_ITLB PREFETCH  ACCESS:          0  HIT:          0  MISS:          0
cpu0_ITLB WRITEBACK ACCESS:          0  HIT:          0  MISS:          0
cpu0_ITLB TRANSLATION ACCESS:          0  HIT:          0  MISS:          0
cpu0_ITLB PREFETCH  REQUESTED:          0  ISSUED:          0  USEFUL:          0  USELESS:          0
cpu0_ITLB AVERAGE MISS LATENCY: -nan cycles
cpu0_L1I TOTAL     ACCESS:      10704  HIT:      10704  MISS:          0
cpu0_L1I LOAD      ACCESS:      10704  HIT:      10704  MISS:          0
cpu0_L1I RFO       ACCESS:          0  HIT:          0  MISS:          0
cpu0_L1I PREFETCH  ACCESS:          0  HIT:          0  MISS:          0
cpu0_L1I WRITEBACK ACCESS:          0  HIT:          0  MISS:          0
cpu0_L1I TRANSLATION ACCESS:          0  HIT:          0  MISS:          0
cpu0_L1I PREFETCH  REQUESTED:          0  ISSUED:          0  USEFUL:          0  USELESS:          0
cpu0_L1I AVERAGE MISS LATENCY: -nan cycles
cpu0_STLB TOTAL     ACCESS:     437581  HIT:     432151  MISS:       5430
cpu0_STLB LOAD      ACCESS:     280140  HIT:     275455  MISS:       4685
cpu0_STLB RFO       ACCESS:     157441  HIT:     156696  MISS:        745
cpu0_STLB PREFETCH  ACCESS:          0  HIT:          0  MISS:          0
cpu0_STLB WRITEBACK ACCESS:          0  HIT:          0  MISS:          0
cpu0_STLB TRANSLATION ACCESS:          0  HIT:          0  MISS:          0
cpu0_STLB PREFETCH  REQUESTED:          0  ISSUED:          0  USEFUL:          0  USELESS:          0
cpu0_STLB AVERAGE MISS LATENCY: 170.703 cycles
cpu0_L1D TOTAL     ACCESS:    6195370  HIT:    4953185  MISS:    1242185
cpu0_L1D LOAD      ACCESS:    5559620  HIT:    4433829  MISS:    1125791
cpu0_L1D RFO       ACCESS:     630348  HIT:     515905  MISS:     114443
cpu0_L1D PREFETCH  ACCESS:          0  HIT:          0  MISS:          0
cpu0_L1D WRITEBACK ACCESS:          0  HIT:          0  MISS:          0
cpu0_L1D TRANSLATION ACCESS:       5402  HIT:       3451  MISS:       1951
cpu0_L1D PREFETCH  REQUESTED:          0  ISSUED:          0  USEFUL:          0  USELESS:          0
cpu0_L1D AVERAGE MISS LATENCY: 124.841 cycles
cpu0_L2C TOTAL     ACCESS:    1796287  HIT:     666596  MISS:    1129691
cpu0_L2C LOAD      ACCESS:    1125783  HIT:     237236  MISS:     888547
cpu0_L2C RFO       ACCESS:     114436  HIT:      77895  MISS:      36541
cpu0_L2C PREFETCH  ACCESS:     206043  HIT:       3208  MISS:     202835
cpu0_L2C WRITEBACK ACCESS:     348074  HIT:     346779  MISS:       1295
cpu0_L2C TRANSLATION ACCESS:       1951  HIT:       1478  MISS:        473
cpu0_L2C PREFETCH  REQUESTED:     227768  ISSUED:     227768  USEFUL:      54489  USELESS:     153168
cpu0_L2C AVERAGE MISS LATENCY: 165.405 cycles
LLC TOTAL     ACCESS:    1372666  HIT:     632734  MISS:     739932
LLC LOAD      ACCESS:     883706  HIT:     353711  MISS:     529995
LLC RFO       ACCESS:      36540  HIT:      10592  MISS:      25948
LLC PREFETCH  ACCESS:     216469  HIT:      34622  MISS:     181847
LLC WRITEBACK ACCESS:     235478  HIT:     233553  MISS:       1925
LLC TRANSLATION ACCESS:        473  HIT:        256  MISS:        217
LLC PREFETCH  REQUESTED:          0  ISSUED:          0  USEFUL:          0  USELESS:          0
LLC AVERAGE MISS LATENCY: 231.829 cycles

DRAM Statistics
 CHANNEL 0
 RQ ROW_BUFFER_HIT:     131374  ROW_BUFFER_MISS:     606254
 DBUS AVG_CONGESTED_CYCLE:    3.94294
 WQ ROW_BUFFER_HIT:      39923  ROW_BUFFER_MISS:     168718  FULL:          0


CPU 0 Branch Prediction Accuracy: 91.1986% MPKI: 12.9566 Average ROB Occupancy at Mispredict: 52.2182
Branch type MPKI
BRANCH_DIRECT_JUMP: 0
BRANCH_INDIRECT: 0
BRANCH_CONDITIONAL: 12.9566
BRANCH_DIRECT_CALL: 0
BRANCH_INDIRECT_CALL: 0
BRANCH_RETURN: 0

