
*** ChampSim Multicore Out-of-Order Simulator ***

Warmup Instructions: 25000000
Simulation Instructions: 25000000
Number of CPUs: 1
Off-chip DRAM Size: 4 GiB Channels: 1 Width: 64-bit Data Rate: 3200 MT/s

VirtualMemory physical capacity: 8588881920 num_ppages: 2096895
VirtualMemory page size: 4096 log2_page_size: 12

CPU 0 runs /home/atharva/IITB/CS_683/PA2/sssp-3.trace.gz
CPU 0 Bimodal branch predictor
Basic BTB sets: 1024 ways: 8 indirect buffer size: 4096 RAS size: 64
cpu0_L2C stream prefetcher 
Heartbeat CPU 0 instructions: 10000002 cycles: 2980460 heartbeat IPC: 3.35519 cumulative IPC: 3.35519 (Simulation time: 0 hr 0 min 27 sec) 
Heartbeat CPU 0 instructions: 20000001 cycles: 6362404 heartbeat IPC: 2.95688 cumulative IPC: 3.14347 (Simulation time: 0 hr 1 min 0 sec) 

Warmup complete CPU 0 instructions: 25000004 cycles: 8126984 (Simulation time: 0 hr 1 min 16 sec) 

Heartbeat CPU 0 instructions: 30000002 cycles: 26020305 heartbeat IPC: 0.508701 cumulative IPC: 0.279434 (Simulation time: 0 hr 1 min 47 sec) 
Heartbeat CPU 0 instructions: 40000001 cycles: 63755390 heartbeat IPC: 0.265005 cumulative IPC: 0.269646 (Simulation time: 0 hr 2 min 51 sec) 
Heartbeat CPU 0 instructions: 50000002 cycles: 100045217 heartbeat IPC: 0.275559 cumulative IPC: 0.271981 (Simulation time: 0 hr 3 min 55 sec) 
Finished CPU 0 instructions: 25000000 cycles: 91918251 cumulative IPC: 0.271981 (Simulation time: 0 hr 3 min 55 sec) 

ChampSim completed all CPUs

Region of Interest Statistics

CPU 0 cumulative IPC: 0.271981 instructions: 25000000 cycles: 91918251
cpu0_DTLB TOTAL     ACCESS:    6313809  HIT:    5876230  MISS:     437579
cpu0_DTLB LOAD      ACCESS:    5888453  HIT:    5608315  MISS:     280138
cpu0_DTLB RFO       ACCESS:     425356  HIT:     267915  MISS:     157441
cpu0_DTLB PREFETCH  ACCESS:          0  HIT:          0  MISS:          0
cpu0_DTLB WRITEBACK ACCESS:          0  HIT:          0  MISS:          0
cpu0_DTLB TRANSLATION ACCESS:          0  HIT:          0  MISS:          0
cpu0_DTLB PREFETCH  REQUESTED:          0  ISSUED:          0  USEFUL:          0  USELESS:          0
cpu0_DTLB AVERAGE MISS LATENCY: 11.2583 cycles
cpu0_ITLB TOTAL     ACCESS:    2383413  HIT:    2383413  MISS:          0
cpu0_ITLB LOAD      ACCESS:    2383413  HIT:    2383413  MISS:          0
cpu0_ITLB RFO       ACCESS:          0  HIT:          0  MISS:          0
cpu0_ITLB PREFETCH  ACCESS:          0  HIT:          0  MISS:          0
cpu0_ITLB WRITEBACK ACCESS:          0  HIT:          0  MISS:          0
cpu0_ITLB TRANSLATION ACCESS:          0  HIT:          0  MISS:          0
cpu0_ITLB PREFETCH  REQUESTED:          0  ISSUED:          0  USEFUL:          0  USELESS:          0
cpu0_ITLB AVERAGE MISS LATENCY: -nan cycles
cpu0_L1I TOTAL     ACCESS:      10710  HIT:      10710  MISS:          0
cpu0_L1I LOAD      ACCESS:      10710  HIT:      10710  MISS:          0
cpu0_L1I RFO       ACCESS:          0  HIT:          0  MISS:          0
cpu0_L1I PREFETCH  ACCESS:          0  HIT:          0  MISS:          0
cpu0_L1I WRITEBACK ACCESS:          0  HIT:          0  MISS:          0
cpu0_L1I TRANSLATION ACCESS:          0  HIT:          0  MISS:          0
cpu0_L1I PREFETCH  REQUESTED:          0  ISSUED:          0  USEFUL:          0  USELESS:          0
cpu0_L1I AVERAGE MISS LATENCY: -nan cycles
cpu0_STLB TOTAL     ACCESS:     437579  HIT:     432149  MISS:       5430
cpu0_STLB LOAD      ACCESS:     280138  HIT:     275453  MISS:       4685
cpu0_STLB RFO       ACCESS:     157441  HIT:     156696  MISS:        745
cpu0_STLB PREFETCH  ACCESS:          0  HIT:          0  MISS:          0
cpu0_STLB WRITEBACK ACCESS:          0  HIT:          0  MISS:          0
cpu0_STLB TRANSLATION ACCESS:          0  HIT:          0  MISS:          0
cpu0_STLB PREFETCH  REQUESTED:          0  ISSUED:          0  USEFUL:          0  USELESS:          0
cpu0_STLB AVERAGE MISS LATENCY: 174.825 cycles
cpu0_L1D TOTAL     ACCESS:    6195380  HIT:    4953195  MISS:    1242185
cpu0_L1D LOAD      ACCESS:    5559365  HIT:    4433570  MISS:    1125795
cpu0_L1D RFO       ACCESS:     630614  HIT:     516173  MISS:     114441
cpu0_L1D PREFETCH  ACCESS:          0  HIT:          0  MISS:          0
cpu0_L1D WRITEBACK ACCESS:          0  HIT:          0  MISS:          0
cpu0_L1D TRANSLATION ACCESS:       5401  HIT:       3452  MISS:       1949
cpu0_L1D PREFETCH  REQUESTED:          0  ISSUED:          0  USEFUL:          0  USELESS:          0
cpu0_L1D AVERAGE MISS LATENCY: 132.046 cycles
cpu0_L2C TOTAL     ACCESS:    1805825  HIT:     646735  MISS:    1159090
cpu0_L2C LOAD      ACCESS:    1125786  HIT:     218019  MISS:     907767
cpu0_L2C RFO       ACCESS:     114435  HIT:      77444  MISS:      36991
cpu0_L2C PREFETCH  ACCESS:     215580  HIT:       3135  MISS:     212445
cpu0_L2C WRITEBACK ACCESS:     348075  HIT:     346668  MISS:       1407
cpu0_L2C TRANSLATION ACCESS:       1949  HIT:       1469  MISS:        480
cpu0_L2C PREFETCH  REQUESTED:     231139  ISSUED:     231139  USEFUL:      35594  USELESS:     178002
cpu0_L2C AVERAGE MISS LATENCY: 172.316 cycles
LLC TOTAL     ACCESS:    1405882  HIT:     630789  MISS:     775093
LLC LOAD      ACCESS:     906577  HIT:     350211  MISS:     556366
LLC RFO       ACCESS:      36991  HIT:      10931  MISS:      26060
LLC PREFETCH  ACCESS:     225768  HIT:      35375  MISS:     190393
LLC WRITEBACK ACCESS:     236066  HIT:     234034  MISS:       2032
LLC TRANSLATION ACCESS:        480  HIT:        238  MISS:        242
LLC PREFETCH  REQUESTED:          0  ISSUED:          0  USEFUL:          0  USELESS:          0
LLC AVERAGE MISS LATENCY: 240.283 cycles

DRAM Statistics
 CHANNEL 0
 RQ ROW_BUFFER_HIT:     133226  ROW_BUFFER_MISS:     639422
 DBUS AVG_CONGESTED_CYCLE:    3.94459
 WQ ROW_BUFFER_HIT:      35489  ROW_BUFFER_MISS:     174255  FULL:          0


CPU 0 Branch Prediction Accuracy: 91.1986% MPKI: 12.9566 Average ROB Occupancy at Mispredict: 52.2066
Branch type MPKI
BRANCH_DIRECT_JUMP: 0
BRANCH_INDIRECT: 0
BRANCH_CONDITIONAL: 12.9566
BRANCH_DIRECT_CALL: 0
BRANCH_INDIRECT_CALL: 0
BRANCH_RETURN: 0

