
*** ChampSim Multicore Out-of-Order Simulator ***

Warmup Instructions: 25000000
Simulation Instructions: 25000000
Number of CPUs: 1
Off-chip DRAM Size: 4 GiB Channels: 1 Width: 64-bit Data Rate: 3200 MT/s

VirtualMemory physical capacity: 8588881920 num_ppages: 2096895
VirtualMemory page size: 4096 log2_page_size: 12

CPU 0 runs /home/atharva/IITB/CS_683/PA2/619.lbm_s-2677B.champsimtrace.xz
CPU 0 Bimodal branch predictor
Basic BTB sets: 1024 ways: 8 indirect buffer size: 4096 RAS size: 64
cpu0_L2C IP-based stride throttling prefetcher
WARNING: The extended signature CACHE::prefetch_line(ip, base_addr, pf_addr, fill_this_level, prefetch_metadata) is deprecated.
WARNING: Use CACHE::prefetch_line(pf_addr, fill_this_level, prefetch_metadata) instead.
Heartbeat CPU 0 instructions: 10000001 cycles: 2597213 heartbeat IPC: 3.85028 cumulative IPC: 3.85028 (Simulation time: 0 hr 0 min 23 sec) 
Heartbeat CPU 0 instructions: 20000001 cycles: 5189785 heartbeat IPC: 3.85717 cumulative IPC: 3.85372 (Simulation time: 0 hr 0 min 49 sec) 

Warmup complete CPU 0 instructions: 25000001 cycles: 6486612 (Simulation time: 0 hr 1 min 1 sec) 

Heartbeat CPU 0 instructions: 30000000 cycles: 29705391 heartbeat IPC: 0.407903 cumulative IPC: 0.215343 (Simulation time: 0 hr 2 min 34 sec) 
Heartbeat CPU 0 instructions: 40000004 cycles: 76018085 heartbeat IPC: 0.215924 cumulative IPC: 0.21573 (Simulation time: 0 hr 5 min 10 sec) 
Heartbeat CPU 0 instructions: 50000004 cycles: 123371283 heartbeat IPC: 0.211179 cumulative IPC: 0.213886 (Simulation time: 0 hr 7 min 32 sec) 
Finished CPU 0 instructions: 25000003 cycles: 116884671 cumulative IPC: 0.213886 (Simulation time: 0 hr 7 min 32 sec) 

ChampSim completed all CPUs

Region of Interest Statistics

CPU 0 cumulative IPC: 0.213886 instructions: 25000003 cycles: 116884671
cpu0_DTLB TOTAL     ACCESS:    4488699  HIT:    4454652  MISS:      34047
cpu0_DTLB LOAD      ACCESS:    1989386  HIT:    1984765  MISS:       4621
cpu0_DTLB RFO       ACCESS:    2499313  HIT:    2469887  MISS:      29426
cpu0_DTLB PREFETCH  ACCESS:          0  HIT:          0  MISS:          0
cpu0_DTLB WRITEBACK ACCESS:          0  HIT:          0  MISS:          0
cpu0_DTLB TRANSLATION ACCESS:          0  HIT:          0  MISS:          0
cpu0_DTLB PREFETCH  REQUESTED:          0  ISSUED:          0  USEFUL:          0  USELESS:          0
cpu0_DTLB AVERAGE MISS LATENCY: 523.897 cycles
cpu0_ITLB TOTAL     ACCESS:     468215  HIT:     468215  MISS:          0
cpu0_ITLB LOAD      ACCESS:     468215  HIT:     468215  MISS:          0
cpu0_ITLB RFO       ACCESS:          0  HIT:          0  MISS:          0
cpu0_ITLB PREFETCH  ACCESS:          0  HIT:          0  MISS:          0
cpu0_ITLB WRITEBACK ACCESS:          0  HIT:          0  MISS:          0
cpu0_ITLB TRANSLATION ACCESS:          0  HIT:          0  MISS:          0
cpu0_ITLB PREFETCH  REQUESTED:          0  ISSUED:          0  USEFUL:          0  USELESS:          0
cpu0_ITLB AVERAGE MISS LATENCY: -nan cycles
cpu0_L1I TOTAL     ACCESS:     549010  HIT:     549010  MISS:          0
cpu0_L1I LOAD      ACCESS:     549010  HIT:     549010  MISS:          0
cpu0_L1I RFO       ACCESS:          0  HIT:          0  MISS:          0
cpu0_L1I PREFETCH  ACCESS:          0  HIT:          0  MISS:          0
cpu0_L1I WRITEBACK ACCESS:          0  HIT:          0  MISS:          0
cpu0_L1I TRANSLATION ACCESS:          0  HIT:          0  MISS:          0
cpu0_L1I PREFETCH  REQUESTED:          0  ISSUED:          0  USEFUL:          0  USELESS:          0
cpu0_L1I AVERAGE MISS LATENCY: -nan cycles
cpu0_STLB TOTAL     ACCESS:      34047  HIT:      15571  MISS:      18476
cpu0_STLB LOAD      ACCESS:       4621  HIT:          0  MISS:       4621
cpu0_STLB RFO       ACCESS:      29426  HIT:      15571  MISS:      13855
cpu0_STLB PREFETCH  ACCESS:          0  HIT:          0  MISS:          0
cpu0_STLB WRITEBACK ACCESS:          0  HIT:          0  MISS:          0
cpu0_STLB TRANSLATION ACCESS:          0  HIT:          0  MISS:          0
cpu0_STLB PREFETCH  REQUESTED:          0  ISSUED:          0  USEFUL:          0  USELESS:          0
cpu0_STLB AVERAGE MISS LATENCY: 948.691 cycles
cpu0_L1D TOTAL     ACCESS:    5881238  HIT:    3930674  MISS:    1950564
cpu0_L1D LOAD      ACCESS:    1400176  HIT:    1104627  MISS:     295549
cpu0_L1D RFO       ACCESS:    4463331  HIT:    2808325  MISS:    1655006
cpu0_L1D PREFETCH  ACCESS:          0  HIT:          0  MISS:          0
cpu0_L1D WRITEBACK ACCESS:          0  HIT:          0  MISS:          0
cpu0_L1D TRANSLATION ACCESS:      17731  HIT:      17722  MISS:          9
cpu0_L1D PREFETCH  REQUESTED:          0  ISSUED:          0  USEFUL:          0  USELESS:          0
cpu0_L1D AVERAGE MISS LATENCY: 736.095 cycles
cpu0_L2C TOTAL     ACCESS:    3867496  HIT:    2657729  MISS:    1209767
cpu0_L2C LOAD      ACCESS:     295549  HIT:      92086  MISS:     203463
cpu0_L2C RFO       ACCESS:    1655006  HIT:     740854  MISS:     914152
cpu0_L2C PREFETCH  ACCESS:     261896  HIT:     169809  MISS:      92087
cpu0_L2C WRITEBACK ACCESS:    1655036  HIT:    1654980  MISS:         56
cpu0_L2C TRANSLATION ACCESS:          9  HIT:          0  MISS:          9
cpu0_L2C PREFETCH  REQUESTED:     398566  ISSUED:     398504  USEFUL:      96398  USELESS:          0
cpu0_L2C AVERAGE MISS LATENCY: 1255.08 cycles
LLC TOTAL     ACCESS:    2199034  HIT:    1016847  MISS:    1182187
LLC LOAD      ACCESS:     199144  HIT:      18490  MISS:     180654
LLC RFO       ACCESS:     914110  HIT:      27536  MISS:     886574
LLC PREFETCH  ACCESS:     171776  HIT:      56869  MISS:     114907
LLC WRITEBACK ACCESS:     913995  HIT:     913952  MISS:         43
LLC TRANSLATION ACCESS:          9  HIT:          0  MISS:          9
LLC PREFETCH  REQUESTED:          0  ISSUED:          0  USEFUL:          0  USELESS:          0
LLC AVERAGE MISS LATENCY: 1369.89 cycles
 curr_prefetch_accuracy : 0.2419
prefetchdegree: 2416082

DRAM Statistics
 CHANNEL 0
 RQ ROW_BUFFER_HIT:      70823  ROW_BUFFER_MISS:    1111321
 DBUS AVG_CONGESTED_CYCLE:    3.99556
 WQ ROW_BUFFER_HIT:      24721  ROW_BUFFER_MISS:     861392  FULL:          0


CPU 0 Branch Prediction Accuracy: 95.9842% MPKI: 0.71772 Average ROB Occupancy at Mispredict: 255.555
Branch type MPKI
BRANCH_DIRECT_JUMP: 0
BRANCH_INDIRECT: 0
BRANCH_CONDITIONAL: 0.71772
BRANCH_DIRECT_CALL: 0
BRANCH_INDIRECT_CALL: 0
BRANCH_RETURN: 0

