
*** ChampSim Multicore Out-of-Order Simulator ***

Warmup Instructions: 25000000
Simulation Instructions: 25000000
Number of CPUs: 1
Off-chip DRAM Size: 4 GiB Channels: 1 Width: 64-bit Data Rate: 3200 MT/s

VirtualMemory physical capacity: 8588881920 num_ppages: 2096895
VirtualMemory page size: 4096 log2_page_size: 12

CPU 0 runs /home/atharva/IITB/CS_683/PA2/bc-0.trace.gz
CPU 0 Bimodal branch predictor
Basic BTB sets: 1024 ways: 8 indirect buffer size: 4096 RAS size: 64
cpu0_L2C IP-based stride throttling prefetcher
WARNING: The extended signature CACHE::prefetch_line(ip, base_addr, pf_addr, fill_this_level, prefetch_metadata) is deprecated.
WARNING: Use CACHE::prefetch_line(pf_addr, fill_this_level, prefetch_metadata) instead.
Heartbeat CPU 0 instructions: 10000002 cycles: 3203463 heartbeat IPC: 3.12162 cumulative IPC: 3.12162 (Simulation time: 0 hr 0 min 36 sec) 
Heartbeat CPU 0 instructions: 20000001 cycles: 5712287 heartbeat IPC: 3.98593 cumulative IPC: 3.50122 (Simulation time: 0 hr 0 min 57 sec) 

Warmup complete CPU 0 instructions: 25000001 cycles: 6963718 (Simulation time: 0 hr 1 min 7 sec) 

Heartbeat CPU 0 instructions: 30000001 cycles: 40233813 heartbeat IPC: 0.289674 cumulative IPC: 0.150285 (Simulation time: 0 hr 1 min 49 sec) 
Heartbeat CPU 0 instructions: 40000002 cycles: 108357105 heartbeat IPC: 0.146793 cumulative IPC: 0.147939 (Simulation time: 0 hr 3 min 11 sec) 
Heartbeat CPU 0 instructions: 50000002 cycles: 176382539 heartbeat IPC: 0.147004 cumulative IPC: 0.147563 (Simulation time: 0 hr 4 min 19 sec) 
Finished CPU 0 instructions: 25000001 cycles: 169418821 cumulative IPC: 0.147563 (Simulation time: 0 hr 4 min 19 sec) 

ChampSim completed all CPUs

Region of Interest Statistics

CPU 0 cumulative IPC: 0.147563 instructions: 25000001 cycles: 169418821
cpu0_DTLB TOTAL     ACCESS:    5775834  HIT:    5042052  MISS:     733782
cpu0_DTLB LOAD      ACCESS:    4548467  HIT:    4071300  MISS:     477167
cpu0_DTLB RFO       ACCESS:    1227367  HIT:     970752  MISS:     256615
cpu0_DTLB PREFETCH  ACCESS:          0  HIT:          0  MISS:          0
cpu0_DTLB WRITEBACK ACCESS:          0  HIT:          0  MISS:          0
cpu0_DTLB TRANSLATION ACCESS:          0  HIT:          0  MISS:          0
cpu0_DTLB PREFETCH  REQUESTED:          0  ISSUED:          0  USEFUL:          0  USELESS:          0
cpu0_DTLB AVERAGE MISS LATENCY: 13.856 cycles
cpu0_ITLB TOTAL     ACCESS:    3107144  HIT:    3107144  MISS:          0
cpu0_ITLB LOAD      ACCESS:    3107144  HIT:    3107144  MISS:          0
cpu0_ITLB RFO       ACCESS:          0  HIT:          0  MISS:          0
cpu0_ITLB PREFETCH  ACCESS:          0  HIT:          0  MISS:          0
cpu0_ITLB WRITEBACK ACCESS:          0  HIT:          0  MISS:          0
cpu0_ITLB TRANSLATION ACCESS:          0  HIT:          0  MISS:          0
cpu0_ITLB PREFETCH  REQUESTED:          0  ISSUED:          0  USEFUL:          0  USELESS:          0
cpu0_ITLB AVERAGE MISS LATENCY: -nan cycles
cpu0_L1I TOTAL     ACCESS:         86  HIT:         86  MISS:          0
cpu0_L1I LOAD      ACCESS:         86  HIT:         86  MISS:          0
cpu0_L1I RFO       ACCESS:          0  HIT:          0  MISS:          0
cpu0_L1I PREFETCH  ACCESS:          0  HIT:          0  MISS:          0
cpu0_L1I WRITEBACK ACCESS:          0  HIT:          0  MISS:          0
cpu0_L1I TRANSLATION ACCESS:          0  HIT:          0  MISS:          0
cpu0_L1I PREFETCH  REQUESTED:          0  ISSUED:          0  USEFUL:          0  USELESS:          0
cpu0_L1I AVERAGE MISS LATENCY: -nan cycles
cpu0_STLB TOTAL     ACCESS:     733782  HIT:     397124  MISS:     336658
cpu0_STLB LOAD      ACCESS:     477167  HIT:     309931  MISS:     167236
cpu0_STLB RFO       ACCESS:     256615  HIT:      87193  MISS:     169422
cpu0_STLB PREFETCH  ACCESS:          0  HIT:          0  MISS:          0
cpu0_STLB WRITEBACK ACCESS:          0  HIT:          0  MISS:          0
cpu0_STLB TRANSLATION ACCESS:          0  HIT:          0  MISS:          0
cpu0_STLB PREFETCH  REQUESTED:          0  ISSUED:          0  USEFUL:          0  USELESS:          0
cpu0_STLB AVERAGE MISS LATENCY: 10.4049 cycles
cpu0_L1D TOTAL     ACCESS:    6853229  HIT:    4766529  MISS:    2086700
cpu0_L1D LOAD      ACCESS:    5226546  HIT:    3152272  MISS:    2074274
cpu0_L1D RFO       ACCESS:    1299119  HIT:    1288087  MISS:      11032
cpu0_L1D PREFETCH  ACCESS:          0  HIT:          0  MISS:          0
cpu0_L1D WRITEBACK ACCESS:          0  HIT:          0  MISS:          0
cpu0_L1D TRANSLATION ACCESS:     327564  HIT:     326170  MISS:       1394
cpu0_L1D PREFETCH  REQUESTED:          0  ISSUED:          0  USEFUL:          0  USELESS:          0
cpu0_L1D AVERAGE MISS LATENCY: 162.567 cycles
cpu0_L2C TOTAL     ACCESS:    3313953  HIT:    1336278  MISS:    1977675
cpu0_L2C LOAD      ACCESS:    2074274  HIT:     331963  MISS:    1742311
cpu0_L2C RFO       ACCESS:      11032  HIT:        117  MISS:      10915
cpu0_L2C PREFETCH  ACCESS:     578431  HIT:     354039  MISS:     224392
cpu0_L2C WRITEBACK ACCESS:     648822  HIT:     648809  MISS:         13
cpu0_L2C TRANSLATION ACCESS:       1394  HIT:       1350  MISS:         44
cpu0_L2C PREFETCH  REQUESTED:     659133  ISSUED:     654464  USEFUL:     130866  USELESS:      99589
cpu0_L2C AVERAGE MISS LATENCY: 195.988 cycles
LLC TOTAL     ACCESS:    2648114  HIT:    1293513  MISS:    1354601
LLC LOAD      ACCESS:    1736347  HIT:     615237  MISS:    1121110
LLC RFO       ACCESS:      10915  HIT:        498  MISS:      10417
LLC PREFETCH  ACCESS:     266304  HIT:      43349  MISS:     222955
LLC WRITEBACK ACCESS:     634504  HIT:     634418  MISS:         86
LLC TRANSLATION ACCESS:         44  HIT:         11  MISS:         33
LLC PREFETCH  REQUESTED:          0  ISSUED:          0  USEFUL:          0  USELESS:          0
LLC AVERAGE MISS LATENCY: 287.296 cycles
 curr_prefetch_accuracy : 0.199959
prefetchdegree: 1

DRAM Statistics
 CHANNEL 0
 RQ ROW_BUFFER_HIT:     138288  ROW_BUFFER_MISS:    1215555
 DBUS AVG_CONGESTED_CYCLE:    3.95899
 WQ ROW_BUFFER_HIT:       1444  ROW_BUFFER_MISS:     543481  FULL:          0


CPU 0 Branch Prediction Accuracy: 81.1279% MPKI: 35.6282 Average ROB Occupancy at Mispredict: 25.1546
Branch type MPKI
BRANCH_DIRECT_JUMP: 0
BRANCH_INDIRECT: 0
BRANCH_CONDITIONAL: 35.6282
BRANCH_DIRECT_CALL: 0
BRANCH_INDIRECT_CALL: 0
BRANCH_RETURN: 0

