
*** ChampSim Multicore Out-of-Order Simulator ***

Warmup Instructions: 25000000
Simulation Instructions: 25000000
Number of CPUs: 1
Off-chip DRAM Size: 4 GiB Channels: 1 Width: 64-bit Data Rate: 3200 MT/s

VirtualMemory physical capacity: 8588881920 num_ppages: 2096895
VirtualMemory page size: 4096 log2_page_size: 12

CPU 0 runs /home/atharva/IITB/CS_683/PA2/sssp-3.trace.gz
CPU 0 Bimodal branch predictor
Basic BTB sets: 1024 ways: 8 indirect buffer size: 4096 RAS size: 64
cpu0_L2C IP-based stride throttling prefetcher
WARNING: The extended signature CACHE::prefetch_line(ip, base_addr, pf_addr, fill_this_level, prefetch_metadata) is deprecated.
WARNING: Use CACHE::prefetch_line(pf_addr, fill_this_level, prefetch_metadata) instead.
Heartbeat CPU 0 instructions: 10000002 cycles: 2980415 heartbeat IPC: 3.35524 cumulative IPC: 3.35524 (Simulation time: 0 hr 0 min 28 sec) 
Heartbeat CPU 0 instructions: 20000001 cycles: 6362352 heartbeat IPC: 2.95689 cumulative IPC: 3.14349 (Simulation time: 0 hr 0 min 57 sec) 

Warmup complete CPU 0 instructions: 25000004 cycles: 8126935 (Simulation time: 0 hr 1 min 13 sec) 

Heartbeat CPU 0 instructions: 30000002 cycles: 23108159 heartbeat IPC: 0.597164 cumulative IPC: 0.333751 (Simulation time: 0 hr 1 min 38 sec) 
Heartbeat CPU 0 instructions: 40000001 cycles: 53539812 heartbeat IPC: 0.328605 cumulative IPC: 0.330303 (Simulation time: 0 hr 2 min 28 sec) 
Heartbeat CPU 0 instructions: 50000002 cycles: 83030545 heartbeat IPC: 0.33909 cumulative IPC: 0.333762 (Simulation time: 0 hr 3 min 18 sec) 
Finished CPU 0 instructions: 25000000 cycles: 74903628 cumulative IPC: 0.333762 (Simulation time: 0 hr 3 min 18 sec) 

ChampSim completed all CPUs

Region of Interest Statistics

CPU 0 cumulative IPC: 0.333762 instructions: 25000000 cycles: 74903628
cpu0_DTLB TOTAL     ACCESS:    6307556  HIT:    5869990  MISS:     437566
cpu0_DTLB LOAD      ACCESS:    5883010  HIT:    5602683  MISS:     280327
cpu0_DTLB RFO       ACCESS:     424546  HIT:     267307  MISS:     157239
cpu0_DTLB PREFETCH  ACCESS:          0  HIT:          0  MISS:          0
cpu0_DTLB WRITEBACK ACCESS:          0  HIT:          0  MISS:          0
cpu0_DTLB TRANSLATION ACCESS:          0  HIT:          0  MISS:          0
cpu0_DTLB PREFETCH  REQUESTED:          0  ISSUED:          0  USEFUL:          0  USELESS:          0
cpu0_DTLB AVERAGE MISS LATENCY: 11.2673 cycles
cpu0_ITLB TOTAL     ACCESS:    2383702  HIT:    2383702  MISS:          0
cpu0_ITLB LOAD      ACCESS:    2383702  HIT:    2383702  MISS:          0
cpu0_ITLB RFO       ACCESS:          0  HIT:          0  MISS:          0
cpu0_ITLB PREFETCH  ACCESS:          0  HIT:          0  MISS:          0
cpu0_ITLB WRITEBACK ACCESS:          0  HIT:          0  MISS:          0
cpu0_ITLB TRANSLATION ACCESS:          0  HIT:          0  MISS:          0
cpu0_ITLB PREFETCH  REQUESTED:          0  ISSUED:          0  USEFUL:          0  USELESS:          0
cpu0_ITLB AVERAGE MISS LATENCY: -nan cycles
cpu0_L1I TOTAL     ACCESS:      10706  HIT:      10706  MISS:          0
cpu0_L1I LOAD      ACCESS:      10706  HIT:      10706  MISS:          0
cpu0_L1I RFO       ACCESS:          0  HIT:          0  MISS:          0
cpu0_L1I PREFETCH  ACCESS:          0  HIT:          0  MISS:          0
cpu0_L1I WRITEBACK ACCESS:          0  HIT:          0  MISS:          0
cpu0_L1I TRANSLATION ACCESS:          0  HIT:          0  MISS:          0
cpu0_L1I PREFETCH  REQUESTED:          0  ISSUED:          0  USEFUL:          0  USELESS:          0
cpu0_L1I AVERAGE MISS LATENCY: -nan cycles
cpu0_STLB TOTAL     ACCESS:     437566  HIT:     432136  MISS:       5430
cpu0_STLB LOAD      ACCESS:     280327  HIT:     275641  MISS:       4686
cpu0_STLB RFO       ACCESS:     157239  HIT:     156495  MISS:        744
cpu0_STLB PREFETCH  ACCESS:          0  HIT:          0  MISS:          0
cpu0_STLB WRITEBACK ACCESS:          0  HIT:          0  MISS:          0
cpu0_STLB TRANSLATION ACCESS:          0  HIT:          0  MISS:          0
cpu0_STLB PREFETCH  REQUESTED:          0  ISSUED:          0  USEFUL:          0  USELESS:          0
cpu0_STLB AVERAGE MISS LATENCY: 174.398 cycles
cpu0_L1D TOTAL     ACCESS:    6492208  HIT:    5250021  MISS:    1242187
cpu0_L1D LOAD      ACCESS:    5857120  HIT:    4731324  MISS:    1125796
cpu0_L1D RFO       ACCESS:     629685  HIT:     515244  MISS:     114441
cpu0_L1D PREFETCH  ACCESS:          0  HIT:          0  MISS:          0
cpu0_L1D WRITEBACK ACCESS:          0  HIT:          0  MISS:          0
cpu0_L1D TRANSLATION ACCESS:       5403  HIT:       3453  MISS:       1950
cpu0_L1D PREFETCH  REQUESTED:          0  ISSUED:          0  USEFUL:          0  USELESS:          0
cpu0_L1D AVERAGE MISS LATENCY: 107.734 cycles
cpu0_L2C TOTAL     ACCESS:    2294272  HIT:    1245280  MISS:    1048992
cpu0_L2C LOAD      ACCESS:    1125788  HIT:     321841  MISS:     803947
cpu0_L2C RFO       ACCESS:     114432  HIT:      78682  MISS:      35750
cpu0_L2C PREFETCH  ACCESS:     704030  HIT:     496271  MISS:     207759
cpu0_L2C WRITEBACK ACCESS:     348072  HIT:     346995  MISS:       1077
cpu0_L2C TRANSLATION ACCESS:       1950  HIT:       1491  MISS:        459
cpu0_L2C PREFETCH  REQUESTED:     834973  ISSUED:     822056  USEFUL:     164406  USELESS:      63267
cpu0_L2C AVERAGE MISS LATENCY: 156.437 cycles
LLC TOTAL     ACCESS:    1308106  HIT:     654625  MISS:     653481
LLC LOAD      ACCESS:     784142  HIT:     372741  MISS:     411401
LLC RFO       ACCESS:      35750  HIT:       9971  MISS:      25779
LLC PREFETCH  ACCESS:     253512  HIT:      39107  MISS:     214405
LLC WRITEBACK ACCESS:     234243  HIT:     232553  MISS:       1690
LLC TRANSLATION ACCESS:        459  HIT:        253  MISS:        206
LLC PREFETCH  REQUESTED:          0  ISSUED:          0  USEFUL:          0  USELESS:          0
LLC AVERAGE MISS LATENCY: 252.505 cycles
 curr_prefetch_accuracy : 0.199994
prefetchdegree: 1

DRAM Statistics
 CHANNEL 0
 RQ ROW_BUFFER_HIT:     127472  ROW_BUFFER_MISS:     524046
 DBUS AVG_CONGESTED_CYCLE:    3.93705
 WQ ROW_BUFFER_HIT:      42060  ROW_BUFFER_MISS:     163376  FULL:          0


CPU 0 Branch Prediction Accuracy: 91.1986% MPKI: 12.9566 Average ROB Occupancy at Mispredict: 52.2851
Branch type MPKI
BRANCH_DIRECT_JUMP: 0
BRANCH_INDIRECT: 0
BRANCH_CONDITIONAL: 12.9566
BRANCH_DIRECT_CALL: 0
BRANCH_INDIRECT_CALL: 0
BRANCH_RETURN: 0

